WIDTH=8;
DEPTH=19200;
ADDRESS_RADIX=HEX;
DATA_RADIX=BIN;
CONTENT BEGIN
    0 : 11011001;
    1 : 11011001;
    2 : 11011001;
    3 : 11011001;
    4 : 11011001;
    5 : 11011001;
    6 : 11011001;
    7 : 11011001;
    8 : 11011001;
    9 : 11011001;
    A : 11011001;
    B : 11011001;
    C : 11011001;
    D : 11011001;
    E : 11011001;
    F : 11011001;
    10 : 11011001;
    11 : 11011001;
    12 : 11011001;
    13 : 11011001;
    14 : 11011001;
    15 : 11011001;
    16 : 11011001;
    17 : 11011001;
    18 : 11011001;
    19 : 11011001;
    1A : 11011001;
    1B : 11011001;
    1C : 11011001;
    1D : 11011001;
    1E : 11011001;
    1F : 11011001;
    20 : 11011001;
    21 : 11011001;
    22 : 11011001;
    23 : 11011001;
    24 : 11011001;
    25 : 11011001;
    26 : 11011001;
    27 : 11011001;
    28 : 11011001;
    29 : 11011001;
    2A : 11011001;
    2B : 11011001;
    2C : 11011001;
    2D : 11011001;
    2E : 11011001;
    2F : 11011001;
    30 : 11011001;
    31 : 11011001;
    32 : 11011001;
    33 : 11011001;
    34 : 11011001;
    35 : 11011001;
    36 : 11011001;
    37 : 11011001;
    38 : 11011001;
    39 : 11011001;
    3A : 11011001;
    3B : 11011001;
    3C : 11011001;
    3D : 11011001;
    3E : 11011001;
    3F : 11011001;
    40 : 11011001;
    41 : 11011001;
    42 : 11011001;
    43 : 11011001;
    44 : 11011001;
    45 : 11011001;
    46 : 11011001;
    47 : 11011001;
    48 : 11011001;
    49 : 11011001;
    4A : 11011001;
    4B : 11011001;
    4C : 11011001;
    4D : 11011001;
    4E : 11011001;
    4F : 11011001;
    50 : 11011001;
    51 : 11011001;
    52 : 11011001;
    53 : 11011001;
    54 : 11011001;
    55 : 11011001;
    56 : 11011001;
    57 : 11011001;
    58 : 11011001;
    59 : 11011001;
    5A : 11011001;
    5B : 11011001;
    5C : 11011001;
    5D : 11011001;
    5E : 11011001;
    5F : 11011001;
    60 : 11011001;
    61 : 11011001;
    62 : 11011001;
    63 : 11011001;
    64 : 11011001;
    65 : 11011001;
    66 : 11011001;
    67 : 11011001;
    68 : 11011001;
    69 : 11011001;
    6A : 11011001;
    6B : 11011001;
    6C : 11011001;
    6D : 11011001;
    6E : 11011001;
    6F : 11011001;
    70 : 11011001;
    71 : 11011001;
    72 : 11011001;
    73 : 11011001;
    74 : 11011001;
    75 : 11011001;
    76 : 11011001;
    77 : 11011001;
    78 : 11011001;
    79 : 11011001;
    7A : 11011001;
    7B : 11011001;
    7C : 11011001;
    7D : 11011001;
    7E : 11011001;
    7F : 11011001;
    80 : 11011001;
    81 : 11011001;
    82 : 11011001;
    83 : 11011001;
    84 : 11011001;
    85 : 11011001;
    86 : 11011001;
    87 : 11011001;
    88 : 11011001;
    89 : 11011001;
    8A : 11011001;
    8B : 11011001;
    8C : 11011001;
    8D : 11011001;
    8E : 11011001;
    8F : 11011001;
    90 : 11011001;
    91 : 11011001;
    92 : 11011001;
    93 : 11011001;
    94 : 11011001;
    95 : 11011001;
    96 : 11011001;
    97 : 11011001;
    98 : 11011001;
    99 : 11011001;
    9A : 11011001;
    9B : 11011001;
    9C : 11011001;
    9D : 11011001;
    9E : 11011001;
    9F : 11011001;
    A0 : 11011001;
    A1 : 11011001;
    A2 : 11011001;
    A3 : 11011001;
    A4 : 11011001;
    A5 : 11011001;
    A6 : 11011001;
    A7 : 11011001;
    A8 : 11011001;
    A9 : 11011001;
    AA : 11011001;
    AB : 11011001;
    AC : 11011001;
    AD : 11011001;
    AE : 11011001;
    AF : 11011001;
    B0 : 11011001;
    B1 : 11011001;
    B2 : 11011001;
    B3 : 11011001;
    B4 : 11011001;
    B5 : 11011001;
    B6 : 11011001;
    B7 : 11011001;
    B8 : 11011001;
    B9 : 11011001;
    BA : 11011001;
    BB : 11011001;
    BC : 11011001;
    BD : 11011001;
    BE : 11011001;
    BF : 11011001;
    C0 : 11011001;
    C1 : 11011001;
    C2 : 11011001;
    C3 : 11011001;
    C4 : 11011001;
    C5 : 11011001;
    C6 : 11011001;
    C7 : 11011001;
    C8 : 11011001;
    C9 : 11011001;
    CA : 11011001;
    CB : 11011001;
    CC : 11011001;
    CD : 11011001;
    CE : 11011001;
    CF : 11011001;
    D0 : 11011001;
    D1 : 11011001;
    D2 : 11011001;
    D3 : 11011001;
    D4 : 11011001;
    D5 : 11011001;
    D6 : 11011001;
    D7 : 11011001;
    D8 : 11011001;
    D9 : 11011001;
    DA : 11011001;
    DB : 11011001;
    DC : 11011001;
    DD : 11011001;
    DE : 11011001;
    DF : 11011001;
    E0 : 11011001;
    E1 : 11011001;
    E2 : 11011001;
    E3 : 11011001;
    E4 : 11011001;
    E5 : 11011001;
    E6 : 11011001;
    E7 : 11011001;
    E8 : 11011001;
    E9 : 11011001;
    EA : 11011001;
    EB : 11011001;
    EC : 11011001;
    ED : 11011001;
    EE : 11011001;
    EF : 11011001;
    F0 : 11011001;
    F1 : 11011001;
    F2 : 11011001;
    F3 : 11011001;
    F4 : 11011001;
    F5 : 11011001;
    F6 : 11011001;
    F7 : 11011001;
    F8 : 11011001;
    F9 : 11011001;
    FA : 11011001;
    FB : 11011001;
    FC : 11011001;
    FD : 11011001;
    FE : 11011001;
    FF : 11011001;
    100 : 11011001;
    101 : 11011001;
    102 : 11011001;
    103 : 11011001;
    104 : 11011001;
    105 : 11011001;
    106 : 11011001;
    107 : 11011001;
    108 : 11011001;
    109 : 11011001;
    10A : 11011001;
    10B : 11011001;
    10C : 11011001;
    10D : 11011001;
    10E : 11011001;
    10F : 11011001;
    110 : 11011001;
    111 : 11011001;
    112 : 11011001;
    113 : 11011001;
    114 : 11011001;
    115 : 11011001;
    116 : 11011001;
    117 : 11011001;
    118 : 11011001;
    119 : 11011001;
    11A : 11011001;
    11B : 11011001;
    11C : 11011001;
    11D : 11011001;
    11E : 11011001;
    11F : 11011001;
    120 : 11011001;
    121 : 11011001;
    122 : 11011001;
    123 : 11011001;
    124 : 11011001;
    125 : 11011001;
    126 : 11011001;
    127 : 11011001;
    128 : 11011001;
    129 : 11011001;
    12A : 11011001;
    12B : 11011001;
    12C : 11011001;
    12D : 11011001;
    12E : 11011001;
    12F : 11011001;
    130 : 11011001;
    131 : 11011001;
    132 : 11011001;
    133 : 11011001;
    134 : 11011001;
    135 : 11011001;
    136 : 11011001;
    137 : 11011001;
    138 : 11011001;
    139 : 11011001;
    13A : 11011001;
    13B : 11011001;
    13C : 11011001;
    13D : 11011001;
    13E : 11011001;
    13F : 11011001;
    140 : 11011001;
    141 : 11011001;
    142 : 11011001;
    143 : 11011001;
    144 : 11011001;
    145 : 11011001;
    146 : 11011001;
    147 : 11011001;
    148 : 11011001;
    149 : 11011001;
    14A : 11011001;
    14B : 11011001;
    14C : 11011001;
    14D : 11011001;
    14E : 11011001;
    14F : 11011001;
    150 : 11011001;
    151 : 11011001;
    152 : 11011001;
    153 : 11011001;
    154 : 11011001;
    155 : 11011001;
    156 : 11011001;
    157 : 11011001;
    158 : 11011001;
    159 : 11011001;
    15A : 11011001;
    15B : 11011001;
    15C : 11011001;
    15D : 11011001;
    15E : 11011001;
    15F : 11011001;
    160 : 11011001;
    161 : 11011001;
    162 : 11011001;
    163 : 11011001;
    164 : 11011001;
    165 : 11011001;
    166 : 11011001;
    167 : 11011001;
    168 : 11011001;
    169 : 11011001;
    16A : 11011001;
    16B : 11011001;
    16C : 11011001;
    16D : 11011001;
    16E : 11011001;
    16F : 11011001;
    170 : 11011001;
    171 : 11011001;
    172 : 11011001;
    173 : 11011001;
    174 : 11011001;
    175 : 11011001;
    176 : 11011001;
    177 : 11011001;
    178 : 11011001;
    179 : 11011001;
    17A : 11011001;
    17B : 11011001;
    17C : 11011001;
    17D : 11011001;
    17E : 11011001;
    17F : 11011001;
    180 : 11011001;
    181 : 11011001;
    182 : 11011001;
    183 : 11011001;
    184 : 11011001;
    185 : 11011001;
    186 : 11011001;
    187 : 11011001;
    188 : 11011001;
    189 : 11011001;
    18A : 11011001;
    18B : 11011001;
    18C : 11011001;
    18D : 11011001;
    18E : 11011001;
    18F : 11011001;
    190 : 11011001;
    191 : 11011001;
    192 : 11011001;
    193 : 11011001;
    194 : 11011001;
    195 : 11011001;
    196 : 11011001;
    197 : 11011001;
    198 : 11011001;
    199 : 11011001;
    19A : 11011001;
    19B : 11011001;
    19C : 11011001;
    19D : 11011001;
    19E : 11011001;
    19F : 11011001;
    1A0 : 11011001;
    1A1 : 11011001;
    1A2 : 11011001;
    1A3 : 11011001;
    1A4 : 11011001;
    1A5 : 11011001;
    1A6 : 11011001;
    1A7 : 11011001;
    1A8 : 11011001;
    1A9 : 11011001;
    1AA : 11011001;
    1AB : 11011001;
    1AC : 11011001;
    1AD : 11011001;
    1AE : 11011001;
    1AF : 11011001;
    1B0 : 11011001;
    1B1 : 11011001;
    1B2 : 11011001;
    1B3 : 11011001;
    1B4 : 11011001;
    1B5 : 11011001;
    1B6 : 11011001;
    1B7 : 11011001;
    1B8 : 11011001;
    1B9 : 11011001;
    1BA : 11011001;
    1BB : 11011001;
    1BC : 11011001;
    1BD : 11011001;
    1BE : 11011001;
    1BF : 11011001;
    1C0 : 11011001;
    1C1 : 11011001;
    1C2 : 11011001;
    1C3 : 11011001;
    1C4 : 11011001;
    1C5 : 11011001;
    1C6 : 11011001;
    1C7 : 11011001;
    1C8 : 11011001;
    1C9 : 11011001;
    1CA : 11011001;
    1CB : 11011001;
    1CC : 11011001;
    1CD : 11011001;
    1CE : 11011001;
    1CF : 11011001;
    1D0 : 11011001;
    1D1 : 11011001;
    1D2 : 11011001;
    1D3 : 11011001;
    1D4 : 11011001;
    1D5 : 11011001;
    1D6 : 11011001;
    1D7 : 11011001;
    1D8 : 11011001;
    1D9 : 11011001;
    1DA : 11011001;
    1DB : 11011001;
    1DC : 11011001;
    1DD : 11011001;
    1DE : 11011001;
    1DF : 11011001;
    1E0 : 11011001;
    1E1 : 11011001;
    1E2 : 11011001;
    1E3 : 11011001;
    1E4 : 11011001;
    1E5 : 11011001;
    1E6 : 11011001;
    1E7 : 11011001;
    1E8 : 11011001;
    1E9 : 11011001;
    1EA : 11011001;
    1EB : 11011001;
    1EC : 11011001;
    1ED : 11011001;
    1EE : 11011001;
    1EF : 11011001;
    1F0 : 11011001;
    1F1 : 11011001;
    1F2 : 11011001;
    1F3 : 11011001;
    1F4 : 11011001;
    1F5 : 11011001;
    1F6 : 11011001;
    1F7 : 11011001;
    1F8 : 11011001;
    1F9 : 11011001;
    1FA : 11011001;
    1FB : 11011001;
    1FC : 11011001;
    1FD : 11011001;
    1FE : 11011001;
    1FF : 11011001;
    200 : 11011001;
    201 : 11011001;
    202 : 11011001;
    203 : 11011001;
    204 : 11011001;
    205 : 11011001;
    206 : 11011001;
    207 : 11011001;
    208 : 11011001;
    209 : 11011001;
    20A : 11011001;
    20B : 11011001;
    20C : 11011001;
    20D : 11011001;
    20E : 11011001;
    20F : 11011001;
    210 : 11011001;
    211 : 11011001;
    212 : 11011001;
    213 : 11011001;
    214 : 11011001;
    215 : 11011001;
    216 : 11011001;
    217 : 11011001;
    218 : 11011001;
    219 : 11011001;
    21A : 11011001;
    21B : 11011001;
    21C : 11011001;
    21D : 11011001;
    21E : 11011001;
    21F : 11011001;
    220 : 11011001;
    221 : 11011001;
    222 : 11011001;
    223 : 11011001;
    224 : 11011001;
    225 : 11011001;
    226 : 11011001;
    227 : 11011001;
    228 : 11011001;
    229 : 11011001;
    22A : 11011001;
    22B : 11011001;
    22C : 11011001;
    22D : 11011001;
    22E : 11011001;
    22F : 11011001;
    230 : 11011001;
    231 : 11011001;
    232 : 11011001;
    233 : 11011001;
    234 : 11011001;
    235 : 11011001;
    236 : 11011001;
    237 : 11011001;
    238 : 11011001;
    239 : 11011001;
    23A : 11011001;
    23B : 11011001;
    23C : 11011001;
    23D : 11011001;
    23E : 11011001;
    23F : 11011001;
    240 : 11011001;
    241 : 11011001;
    242 : 11011001;
    243 : 11011001;
    244 : 11011001;
    245 : 11011001;
    246 : 11011001;
    247 : 11011001;
    248 : 11011001;
    249 : 11011001;
    24A : 11011001;
    24B : 11011001;
    24C : 11011001;
    24D : 11011001;
    24E : 11011001;
    24F : 11011001;
    250 : 11011001;
    251 : 11011001;
    252 : 11011001;
    253 : 11011001;
    254 : 11011001;
    255 : 11011001;
    256 : 11011001;
    257 : 11011001;
    258 : 11011001;
    259 : 11011001;
    25A : 11011001;
    25B : 11011001;
    25C : 11011001;
    25D : 11011001;
    25E : 11011001;
    25F : 11011001;
    260 : 11011001;
    261 : 11011001;
    262 : 11011001;
    263 : 11011001;
    264 : 11011001;
    265 : 11011001;
    266 : 11011001;
    267 : 11011001;
    268 : 11011001;
    269 : 11011001;
    26A : 11011001;
    26B : 11011001;
    26C : 11011001;
    26D : 11011001;
    26E : 11011001;
    26F : 11011001;
    270 : 11011001;
    271 : 11011001;
    272 : 11011001;
    273 : 11011001;
    274 : 11011001;
    275 : 11011001;
    276 : 11011001;
    277 : 11011001;
    278 : 11011001;
    279 : 11011001;
    27A : 11011001;
    27B : 11011001;
    27C : 11011001;
    27D : 11011001;
    27E : 11011001;
    27F : 11011001;
    280 : 11011001;
    281 : 11011001;
    282 : 11011001;
    283 : 11011001;
    284 : 11011001;
    285 : 11011001;
    286 : 11011001;
    287 : 11011001;
    288 : 11011001;
    289 : 11011001;
    28A : 11011001;
    28B : 11011001;
    28C : 11011001;
    28D : 11011001;
    28E : 11011001;
    28F : 11011001;
    290 : 11011001;
    291 : 11011001;
    292 : 11011001;
    293 : 11011001;
    294 : 11011001;
    295 : 11011001;
    296 : 11011001;
    297 : 11011001;
    298 : 11011001;
    299 : 11011001;
    29A : 11011001;
    29B : 11011001;
    29C : 11011001;
    29D : 11011001;
    29E : 11011001;
    29F : 11011001;
    2A0 : 11011001;
    2A1 : 11011001;
    2A2 : 11011001;
    2A3 : 11011001;
    2A4 : 11011001;
    2A5 : 11011001;
    2A6 : 11011001;
    2A7 : 11011001;
    2A8 : 11011001;
    2A9 : 11011001;
    2AA : 11011001;
    2AB : 11011001;
    2AC : 11011001;
    2AD : 11011001;
    2AE : 11011001;
    2AF : 11011001;
    2B0 : 11011001;
    2B1 : 11011001;
    2B2 : 11011001;
    2B3 : 11011001;
    2B4 : 11011001;
    2B5 : 11011001;
    2B6 : 11011001;
    2B7 : 11011001;
    2B8 : 11011001;
    2B9 : 11011001;
    2BA : 11011001;
    2BB : 11011001;
    2BC : 11011001;
    2BD : 11011001;
    2BE : 11011001;
    2BF : 11011001;
    2C0 : 11011001;
    2C1 : 11011001;
    2C2 : 11011001;
    2C3 : 11011001;
    2C4 : 11011001;
    2C5 : 11011001;
    2C6 : 11011001;
    2C7 : 11011001;
    2C8 : 11011001;
    2C9 : 11011001;
    2CA : 11011001;
    2CB : 11011001;
    2CC : 11011001;
    2CD : 11011001;
    2CE : 11011001;
    2CF : 11011001;
    2D0 : 11011001;
    2D1 : 11011001;
    2D2 : 11011001;
    2D3 : 11011001;
    2D4 : 11011001;
    2D5 : 11011001;
    2D6 : 11011001;
    2D7 : 11011001;
    2D8 : 11011001;
    2D9 : 11011001;
    2DA : 11011001;
    2DB : 11011001;
    2DC : 11011001;
    2DD : 11011001;
    2DE : 11011001;
    2DF : 11011001;
    2E0 : 11011001;
    2E1 : 11011001;
    2E2 : 11011001;
    2E3 : 11011001;
    2E4 : 11011001;
    2E5 : 11011001;
    2E6 : 11011001;
    2E7 : 11011001;
    2E8 : 11011001;
    2E9 : 11011001;
    2EA : 11011001;
    2EB : 11011001;
    2EC : 11011001;
    2ED : 11011001;
    2EE : 11011001;
    2EF : 11011001;
    2F0 : 11011001;
    2F1 : 11011001;
    2F2 : 11011001;
    2F3 : 11011001;
    2F4 : 11011001;
    2F5 : 11011001;
    2F6 : 11011001;
    2F7 : 11011001;
    2F8 : 11011001;
    2F9 : 11011001;
    2FA : 11011001;
    2FB : 11011001;
    2FC : 11011001;
    2FD : 11011001;
    2FE : 11011001;
    2FF : 11011001;
    300 : 11011001;
    301 : 11011001;
    302 : 11011001;
    303 : 11011001;
    304 : 11011001;
    305 : 11011001;
    306 : 11011001;
    307 : 11011001;
    308 : 11011001;
    309 : 11011001;
    30A : 11011001;
    30B : 11011001;
    30C : 11011001;
    30D : 11011001;
    30E : 11011001;
    30F : 11011001;
    310 : 11011001;
    311 : 11011001;
    312 : 11011001;
    313 : 11011001;
    314 : 11011001;
    315 : 11011001;
    316 : 11011001;
    317 : 11011001;
    318 : 11011001;
    319 : 11011001;
    31A : 11011001;
    31B : 11011001;
    31C : 11011001;
    31D : 11011001;
    31E : 11011001;
    31F : 11011001;
    320 : 11011001;
    321 : 11011001;
    322 : 11011001;
    323 : 11011001;
    324 : 11011001;
    325 : 11011001;
    326 : 11011001;
    327 : 11011001;
    328 : 11011001;
    329 : 11011001;
    32A : 11011001;
    32B : 11011001;
    32C : 11011001;
    32D : 11011001;
    32E : 11011001;
    32F : 11011001;
    330 : 11011001;
    331 : 11011001;
    332 : 11011001;
    333 : 11011001;
    334 : 11011001;
    335 : 11011001;
    336 : 11011001;
    337 : 11011001;
    338 : 11011001;
    339 : 11011001;
    33A : 11011001;
    33B : 11011001;
    33C : 11011001;
    33D : 11011001;
    33E : 11011001;
    33F : 11011001;
    340 : 11011001;
    341 : 11011001;
    342 : 11011001;
    343 : 11011001;
    344 : 11011001;
    345 : 11011001;
    346 : 11011001;
    347 : 11011001;
    348 : 11011001;
    349 : 11011001;
    34A : 11011001;
    34B : 11011001;
    34C : 11011001;
    34D : 11011001;
    34E : 11011001;
    34F : 11011001;
    350 : 11011001;
    351 : 11011001;
    352 : 11011001;
    353 : 11011001;
    354 : 11011001;
    355 : 11011001;
    356 : 11011001;
    357 : 11011001;
    358 : 11011001;
    359 : 11011001;
    35A : 11011001;
    35B : 11011001;
    35C : 11011001;
    35D : 11011001;
    35E : 11011001;
    35F : 11011001;
    360 : 11011001;
    361 : 11011001;
    362 : 11011001;
    363 : 11011001;
    364 : 11011001;
    365 : 11011001;
    366 : 11011001;
    367 : 11011001;
    368 : 11011001;
    369 : 11011001;
    36A : 11011001;
    36B : 11011001;
    36C : 11011001;
    36D : 11011001;
    36E : 11011001;
    36F : 11011001;
    370 : 11011001;
    371 : 11011001;
    372 : 11011001;
    373 : 11011001;
    374 : 11011001;
    375 : 11011001;
    376 : 11011001;
    377 : 11011001;
    378 : 11011001;
    379 : 11011001;
    37A : 11011001;
    37B : 11011001;
    37C : 11011001;
    37D : 11011001;
    37E : 11011001;
    37F : 11011001;
    380 : 11011001;
    381 : 11011001;
    382 : 11011001;
    383 : 11011001;
    384 : 11011001;
    385 : 11011001;
    386 : 11011001;
    387 : 11011001;
    388 : 11011001;
    389 : 11011001;
    38A : 11011001;
    38B : 11011001;
    38C : 11011001;
    38D : 11011001;
    38E : 11011001;
    38F : 11011001;
    390 : 11011001;
    391 : 11011001;
    392 : 11011001;
    393 : 11011001;
    394 : 11011001;
    395 : 11011001;
    396 : 11011001;
    397 : 11011001;
    398 : 11011001;
    399 : 11011001;
    39A : 11011001;
    39B : 11011001;
    39C : 11011001;
    39D : 11011001;
    39E : 11011001;
    39F : 11011001;
    3A0 : 11011001;
    3A1 : 11011001;
    3A2 : 11011001;
    3A3 : 11011001;
    3A4 : 11011001;
    3A5 : 11011001;
    3A6 : 11011001;
    3A7 : 11011001;
    3A8 : 11011001;
    3A9 : 11011001;
    3AA : 11011001;
    3AB : 11011001;
    3AC : 11011001;
    3AD : 11011001;
    3AE : 11011001;
    3AF : 11011001;
    3B0 : 11011001;
    3B1 : 11011001;
    3B2 : 11011001;
    3B3 : 11011001;
    3B4 : 11011001;
    3B5 : 11011001;
    3B6 : 11011001;
    3B7 : 11011001;
    3B8 : 11011001;
    3B9 : 11011001;
    3BA : 11011001;
    3BB : 11011001;
    3BC : 11011001;
    3BD : 11011001;
    3BE : 11011001;
    3BF : 11011001;
    3C0 : 11011001;
    3C1 : 11011001;
    3C2 : 11011001;
    3C3 : 11011001;
    3C4 : 11011001;
    3C5 : 11011001;
    3C6 : 11011001;
    3C7 : 11011001;
    3C8 : 11011001;
    3C9 : 11011001;
    3CA : 11011001;
    3CB : 11011001;
    3CC : 11011001;
    3CD : 11011001;
    3CE : 11011001;
    3CF : 11011001;
    3D0 : 11011001;
    3D1 : 11011001;
    3D2 : 11011001;
    3D3 : 11011001;
    3D4 : 11011001;
    3D5 : 11011001;
    3D6 : 11011001;
    3D7 : 11011001;
    3D8 : 11011001;
    3D9 : 11011001;
    3DA : 11011001;
    3DB : 11011001;
    3DC : 11011001;
    3DD : 11011001;
    3DE : 11011001;
    3DF : 11011001;
    3E0 : 11011001;
    3E1 : 11011001;
    3E2 : 11011001;
    3E3 : 11011001;
    3E4 : 11011001;
    3E5 : 11011001;
    3E6 : 11011001;
    3E7 : 11011001;
    3E8 : 11011001;
    3E9 : 11011001;
    3EA : 11011001;
    3EB : 11011001;
    3EC : 11011001;
    3ED : 11011001;
    3EE : 11011001;
    3EF : 11011001;
    3F0 : 11011001;
    3F1 : 11011001;
    3F2 : 11011001;
    3F3 : 11011001;
    3F4 : 11011001;
    3F5 : 11011001;
    3F6 : 11011001;
    3F7 : 11011001;
    3F8 : 11011001;
    3F9 : 11011001;
    3FA : 11011001;
    3FB : 11011001;
    3FC : 11011001;
    3FD : 11011001;
    3FE : 11011001;
    3FF : 11011001;
    400 : 11011001;
    401 : 11011001;
    402 : 11011001;
    403 : 11011001;
    404 : 11011001;
    405 : 11011001;
    406 : 11011001;
    407 : 11011001;
    408 : 11011001;
    409 : 11011001;
    40A : 11011001;
    40B : 11011001;
    40C : 11011001;
    40D : 11011001;
    40E : 11011001;
    40F : 11011001;
    410 : 11011001;
    411 : 11011001;
    412 : 11011001;
    413 : 11011001;
    414 : 11011001;
    415 : 11011001;
    416 : 11011001;
    417 : 11011001;
    418 : 11011001;
    419 : 11011001;
    41A : 11011001;
    41B : 11011001;
    41C : 11011001;
    41D : 11011001;
    41E : 11011001;
    41F : 11011001;
    420 : 11011001;
    421 : 11011001;
    422 : 11011001;
    423 : 11011001;
    424 : 11011001;
    425 : 11011001;
    426 : 11011001;
    427 : 11011001;
    428 : 11011001;
    429 : 11011001;
    42A : 11011001;
    42B : 11011001;
    42C : 11011001;
    42D : 11011001;
    42E : 11011001;
    42F : 11011001;
    430 : 11011001;
    431 : 11011001;
    432 : 11011001;
    433 : 11011001;
    434 : 11011001;
    435 : 11011001;
    436 : 11011001;
    437 : 11011001;
    438 : 11011001;
    439 : 11011001;
    43A : 11011001;
    43B : 11011001;
    43C : 11011001;
    43D : 11011001;
    43E : 11011001;
    43F : 11011001;
    440 : 11011001;
    441 : 11011001;
    442 : 11011001;
    443 : 11011001;
    444 : 11011001;
    445 : 11011001;
    446 : 11011001;
    447 : 11011001;
    448 : 11011001;
    449 : 11011001;
    44A : 11011001;
    44B : 11011001;
    44C : 11011001;
    44D : 11011001;
    44E : 11011001;
    44F : 11011001;
    450 : 11011001;
    451 : 11011001;
    452 : 11011001;
    453 : 11011001;
    454 : 11011001;
    455 : 11011001;
    456 : 11011001;
    457 : 11011001;
    458 : 11011001;
    459 : 11011001;
    45A : 11011001;
    45B : 11011001;
    45C : 11011001;
    45D : 11011001;
    45E : 11011001;
    45F : 11011001;
    460 : 11011001;
    461 : 11011001;
    462 : 11011001;
    463 : 11011001;
    464 : 11011001;
    465 : 11011001;
    466 : 11011001;
    467 : 11011001;
    468 : 11011001;
    469 : 11011001;
    46A : 11011001;
    46B : 11011001;
    46C : 11011001;
    46D : 11011001;
    46E : 11011001;
    46F : 11011001;
    470 : 11011001;
    471 : 11011001;
    472 : 11011001;
    473 : 11011001;
    474 : 11011001;
    475 : 11011001;
    476 : 11011001;
    477 : 11011001;
    478 : 11011001;
    479 : 11011001;
    47A : 11011001;
    47B : 11011001;
    47C : 11011001;
    47D : 11011001;
    47E : 11011001;
    47F : 11011001;
    480 : 11011001;
    481 : 11011001;
    482 : 11011001;
    483 : 11011001;
    484 : 11011001;
    485 : 11011001;
    486 : 11011001;
    487 : 11011001;
    488 : 11011001;
    489 : 11011001;
    48A : 11011001;
    48B : 11011001;
    48C : 11011001;
    48D : 11011001;
    48E : 11011001;
    48F : 11011001;
    490 : 11011001;
    491 : 11011001;
    492 : 11011001;
    493 : 11011001;
    494 : 11011001;
    495 : 11011001;
    496 : 11011001;
    497 : 11011001;
    498 : 11011001;
    499 : 11011001;
    49A : 11011001;
    49B : 11011001;
    49C : 11011001;
    49D : 11011001;
    49E : 11011001;
    49F : 11011001;
    4A0 : 11011001;
    4A1 : 11011001;
    4A2 : 11011001;
    4A3 : 11011001;
    4A4 : 11011001;
    4A5 : 11011001;
    4A6 : 11011001;
    4A7 : 11011001;
    4A8 : 11011001;
    4A9 : 11011001;
    4AA : 11011001;
    4AB : 11011001;
    4AC : 11011001;
    4AD : 11011001;
    4AE : 11011001;
    4AF : 11011001;
    4B0 : 11011001;
    4B1 : 11011001;
    4B2 : 11011001;
    4B3 : 11011001;
    4B4 : 11011001;
    4B5 : 11011001;
    4B6 : 11011001;
    4B7 : 11011001;
    4B8 : 11011001;
    4B9 : 11011001;
    4BA : 11011001;
    4BB : 11011001;
    4BC : 11011001;
    4BD : 11011001;
    4BE : 11011001;
    4BF : 11011001;
    4C0 : 11011001;
    4C1 : 11011001;
    4C2 : 11011001;
    4C3 : 11011001;
    4C4 : 11011001;
    4C5 : 11011001;
    4C6 : 11011001;
    4C7 : 11011001;
    4C8 : 11011001;
    4C9 : 11011001;
    4CA : 11011001;
    4CB : 11011001;
    4CC : 11011001;
    4CD : 11011001;
    4CE : 11011001;
    4CF : 11011001;
    4D0 : 11011001;
    4D1 : 11011001;
    4D2 : 11011001;
    4D3 : 11011001;
    4D4 : 11011001;
    4D5 : 11011001;
    4D6 : 11011001;
    4D7 : 11011001;
    4D8 : 11011001;
    4D9 : 11011001;
    4DA : 11011001;
    4DB : 11011001;
    4DC : 11011001;
    4DD : 11011001;
    4DE : 11011001;
    4DF : 11011001;
    4E0 : 11011001;
    4E1 : 11011001;
    4E2 : 11011001;
    4E3 : 11011001;
    4E4 : 11011001;
    4E5 : 11011001;
    4E6 : 11011001;
    4E7 : 11011001;
    4E8 : 11011001;
    4E9 : 11011001;
    4EA : 11011001;
    4EB : 11011001;
    4EC : 11011001;
    4ED : 11011001;
    4EE : 11011001;
    4EF : 11011001;
    4F0 : 11011001;
    4F1 : 11011001;
    4F2 : 11011001;
    4F3 : 11011001;
    4F4 : 11011001;
    4F5 : 11011001;
    4F6 : 11011001;
    4F7 : 11011001;
    4F8 : 11011001;
    4F9 : 11011001;
    4FA : 11011001;
    4FB : 11011001;
    4FC : 11011001;
    4FD : 11011001;
    4FE : 11011001;
    4FF : 11011001;
    500 : 11011001;
    501 : 11011001;
    502 : 11011001;
    503 : 11011001;
    504 : 11011001;
    505 : 11011001;
    506 : 11011001;
    507 : 11011001;
    508 : 11011001;
    509 : 11011001;
    50A : 11011001;
    50B : 11011001;
    50C : 11011001;
    50D : 11011001;
    50E : 11011001;
    50F : 11011001;
    510 : 11011001;
    511 : 11011001;
    512 : 11011001;
    513 : 11011001;
    514 : 11011001;
    515 : 11011001;
    516 : 11011001;
    517 : 11011001;
    518 : 11011001;
    519 : 11011001;
    51A : 11011001;
    51B : 11011001;
    51C : 11011001;
    51D : 11011001;
    51E : 11011001;
    51F : 11011001;
    520 : 11011001;
    521 : 11011001;
    522 : 11011001;
    523 : 11011001;
    524 : 11011001;
    525 : 11011001;
    526 : 11011001;
    527 : 11011001;
    528 : 11011001;
    529 : 11011001;
    52A : 11011001;
    52B : 11011001;
    52C : 11011001;
    52D : 11011001;
    52E : 11011001;
    52F : 11011001;
    530 : 11011001;
    531 : 11011001;
    532 : 11011001;
    533 : 11011001;
    534 : 11011001;
    535 : 11011001;
    536 : 11011001;
    537 : 11011001;
    538 : 11011001;
    539 : 11011001;
    53A : 11011001;
    53B : 11011001;
    53C : 11011001;
    53D : 11011001;
    53E : 11011001;
    53F : 11011001;
    540 : 11011001;
    541 : 11011001;
    542 : 11011001;
    543 : 11011001;
    544 : 11011001;
    545 : 11011001;
    546 : 11011001;
    547 : 11011001;
    548 : 11011001;
    549 : 11011001;
    54A : 11011001;
    54B : 11011001;
    54C : 11011001;
    54D : 11011001;
    54E : 11011001;
    54F : 11011001;
    550 : 11011001;
    551 : 11011001;
    552 : 11011001;
    553 : 11011001;
    554 : 11011001;
    555 : 11011001;
    556 : 11011001;
    557 : 11011001;
    558 : 11011001;
    559 : 11011001;
    55A : 11011001;
    55B : 11011001;
    55C : 11011001;
    55D : 11011001;
    55E : 11011001;
    55F : 11011001;
    560 : 11011001;
    561 : 11011001;
    562 : 11011001;
    563 : 11011001;
    564 : 11011001;
    565 : 11011001;
    566 : 11011001;
    567 : 11011001;
    568 : 11011001;
    569 : 11011001;
    56A : 11011001;
    56B : 11011001;
    56C : 11011001;
    56D : 11011001;
    56E : 11011001;
    56F : 11011001;
    570 : 11011001;
    571 : 11011001;
    572 : 11011001;
    573 : 11011001;
    574 : 11011001;
    575 : 11011001;
    576 : 11011001;
    577 : 11011001;
    578 : 11011001;
    579 : 11011001;
    57A : 11011001;
    57B : 11011001;
    57C : 11011001;
    57D : 11011001;
    57E : 11011001;
    57F : 11011001;
    580 : 11011001;
    581 : 11011001;
    582 : 11011001;
    583 : 11011001;
    584 : 11011001;
    585 : 11011001;
    586 : 11011001;
    587 : 11011001;
    588 : 11011001;
    589 : 11011001;
    58A : 11011001;
    58B : 11011001;
    58C : 11011001;
    58D : 11011001;
    58E : 11011001;
    58F : 11011001;
    590 : 11011001;
    591 : 11011001;
    592 : 11011001;
    593 : 11011001;
    594 : 11011001;
    595 : 11011001;
    596 : 11011001;
    597 : 11011001;
    598 : 11011001;
    599 : 11011001;
    59A : 11011001;
    59B : 11011001;
    59C : 11011001;
    59D : 11011001;
    59E : 11011001;
    59F : 11011001;
    5A0 : 11011001;
    5A1 : 11011001;
    5A2 : 11011001;
    5A3 : 11011001;
    5A4 : 11011001;
    5A5 : 11011001;
    5A6 : 11011001;
    5A7 : 11011001;
    5A8 : 11011001;
    5A9 : 11011001;
    5AA : 11011001;
    5AB : 11011001;
    5AC : 11011001;
    5AD : 11011001;
    5AE : 11011001;
    5AF : 11011001;
    5B0 : 11011001;
    5B1 : 11011001;
    5B2 : 11011001;
    5B3 : 11011001;
    5B4 : 11011001;
    5B5 : 11011001;
    5B6 : 11011001;
    5B7 : 11011001;
    5B8 : 11011001;
    5B9 : 11011001;
    5BA : 11011001;
    5BB : 11011001;
    5BC : 11011001;
    5BD : 11011001;
    5BE : 11011001;
    5BF : 11011001;
    5C0 : 11011001;
    5C1 : 11011001;
    5C2 : 11011001;
    5C3 : 11011001;
    5C4 : 11011001;
    5C5 : 11011001;
    5C6 : 11011001;
    5C7 : 11011001;
    5C8 : 11011001;
    5C9 : 11011001;
    5CA : 11011001;
    5CB : 11011001;
    5CC : 11011001;
    5CD : 11011001;
    5CE : 11011001;
    5CF : 11011001;
    5D0 : 11011001;
    5D1 : 11011001;
    5D2 : 11011001;
    5D3 : 11011001;
    5D4 : 11011001;
    5D5 : 11011001;
    5D6 : 11011001;
    5D7 : 11011001;
    5D8 : 11011001;
    5D9 : 11011001;
    5DA : 11011001;
    5DB : 11011001;
    5DC : 11011001;
    5DD : 11011001;
    5DE : 11011001;
    5DF : 11011001;
    5E0 : 11011001;
    5E1 : 11011001;
    5E2 : 11011001;
    5E3 : 11011001;
    5E4 : 11011001;
    5E5 : 11011001;
    5E6 : 11011001;
    5E7 : 11011001;
    5E8 : 11011001;
    5E9 : 11011001;
    5EA : 11011001;
    5EB : 11011001;
    5EC : 11011001;
    5ED : 11011001;
    5EE : 11011001;
    5EF : 11011001;
    5F0 : 11011001;
    5F1 : 11011001;
    5F2 : 11011001;
    5F3 : 11011001;
    5F4 : 11011001;
    5F5 : 11011001;
    5F6 : 11011001;
    5F7 : 11011001;
    5F8 : 11011001;
    5F9 : 11011001;
    5FA : 11011001;
    5FB : 11011001;
    5FC : 11011001;
    5FD : 11011001;
    5FE : 11011001;
    5FF : 11011001;
    600 : 11011001;
    601 : 11011001;
    602 : 11011001;
    603 : 11011001;
    604 : 11011001;
    605 : 11011001;
    606 : 11011001;
    607 : 11011001;
    608 : 11011001;
    609 : 11011001;
    60A : 11011001;
    60B : 11011001;
    60C : 11011001;
    60D : 11011001;
    60E : 11011001;
    60F : 11011001;
    610 : 11011001;
    611 : 11011001;
    612 : 11011001;
    613 : 11011001;
    614 : 11011001;
    615 : 11011001;
    616 : 11011001;
    617 : 11011001;
    618 : 11011001;
    619 : 11011001;
    61A : 11011001;
    61B : 11011001;
    61C : 11011001;
    61D : 11011001;
    61E : 11011001;
    61F : 11011001;
    620 : 11011001;
    621 : 11011001;
    622 : 11011001;
    623 : 11011001;
    624 : 11011001;
    625 : 11011001;
    626 : 11011001;
    627 : 11011001;
    628 : 11011001;
    629 : 11011001;
    62A : 11011001;
    62B : 11011001;
    62C : 11011001;
    62D : 11011001;
    62E : 11011001;
    62F : 11011001;
    630 : 11011001;
    631 : 11011001;
    632 : 11011001;
    633 : 11011001;
    634 : 11011001;
    635 : 11011001;
    636 : 11011001;
    637 : 11011001;
    638 : 11011001;
    639 : 11011001;
    63A : 11011001;
    63B : 11011001;
    63C : 11011001;
    63D : 11011001;
    63E : 11011001;
    63F : 11011001;
    640 : 11011001;
    641 : 11011001;
    642 : 11011001;
    643 : 11011001;
    644 : 11011001;
    645 : 11011001;
    646 : 11011001;
    647 : 11011001;
    648 : 11011001;
    649 : 11011001;
    64A : 11011001;
    64B : 11011001;
    64C : 11011001;
    64D : 11011001;
    64E : 11011001;
    64F : 11011001;
    650 : 11011001;
    651 : 11011001;
    652 : 11011001;
    653 : 11011001;
    654 : 11011001;
    655 : 11011001;
    656 : 11011001;
    657 : 11011001;
    658 : 11011001;
    659 : 11011001;
    65A : 11011001;
    65B : 11011001;
    65C : 11011001;
    65D : 11011001;
    65E : 11011001;
    65F : 11011001;
    660 : 11011001;
    661 : 11011001;
    662 : 11011001;
    663 : 11011001;
    664 : 11011001;
    665 : 11011001;
    666 : 11011001;
    667 : 11011000;
    668 : 11011000;
    669 : 11011000;
    66A : 11011001;
    66B : 11011001;
    66C : 11011000;
    66D : 11011000;
    66E : 11011001;
    66F : 11011000;
    670 : 11011001;
    671 : 11011001;
    672 : 11011001;
    673 : 11011001;
    674 : 11011000;
    675 : 11011000;
    676 : 11011000;
    677 : 11011000;
    678 : 11011000;
    679 : 11010111;
    67A : 11011000;
    67B : 11011000;
    67C : 11011000;
    67D : 11011000;
    67E : 11011000;
    67F : 11011001;
    680 : 11011000;
    681 : 11011001;
    682 : 11011000;
    683 : 11011001;
    684 : 11011001;
    685 : 11011000;
    686 : 11011001;
    687 : 11011000;
    688 : 11011001;
    689 : 11011001;
    68A : 11011001;
    68B : 11011000;
    68C : 11011000;
    68D : 11011000;
    68E : 11011001;
    68F : 11011000;
    690 : 11011000;
    691 : 11011000;
    692 : 11011000;
    693 : 11011001;
    694 : 11011001;
    695 : 11011001;
    696 : 11011001;
    697 : 11011001;
    698 : 11011001;
    699 : 11011001;
    69A : 11011000;
    69B : 11011000;
    69C : 11011000;
    69D : 11011001;
    69E : 11011000;
    69F : 11011001;
    6A0 : 11011000;
    6A1 : 11011000;
    6A2 : 11011001;
    6A3 : 11011001;
    6A4 : 11011001;
    6A5 : 11011000;
    6A6 : 11011000;
    6A7 : 11011000;
    6A8 : 11011001;
    6A9 : 11011000;
    6AA : 11011000;
    6AB : 11011000;
    6AC : 11011001;
    6AD : 11011000;
    6AE : 11011001;
    6AF : 11011000;
    6B0 : 11011000;
    6B1 : 11011001;
    6B2 : 11011000;
    6B3 : 11011000;
    6B4 : 11011001;
    6B5 : 11011001;
    6B6 : 11011001;
    6B7 : 11011001;
    6B8 : 11011001;
    6B9 : 11011001;
    6BA : 11011001;
    6BB : 11011001;
    6BC : 11011001;
    6BD : 11011001;
    6BE : 11011001;
    6BF : 11011001;
    6C0 : 11011001;
    6C1 : 11011001;
    6C2 : 11011001;
    6C3 : 11011001;
    6C4 : 11011001;
    6C5 : 11011001;
    6C6 : 11011001;
    6C7 : 11011001;
    6C8 : 11011001;
    6C9 : 11011001;
    6CA : 11011001;
    6CB : 11011001;
    6CC : 11011001;
    6CD : 11011001;
    6CE : 11011001;
    6CF : 11011001;
    6D0 : 11011001;
    6D1 : 11011001;
    6D2 : 11011001;
    6D3 : 11011001;
    6D4 : 11011001;
    6D5 : 11011001;
    6D6 : 11011001;
    6D7 : 11011001;
    6D8 : 11011001;
    6D9 : 11011001;
    6DA : 11011001;
    6DB : 11011001;
    6DC : 11011001;
    6DD : 11011001;
    6DE : 11011001;
    6DF : 11011001;
    6E0 : 11011001;
    6E1 : 11011001;
    6E2 : 11011001;
    6E3 : 11011001;
    6E4 : 11011001;
    6E5 : 11011001;
    6E6 : 11011001;
    6E7 : 11011001;
    6E8 : 11011001;
    6E9 : 11011001;
    6EA : 11011001;
    6EB : 11011001;
    6EC : 11011001;
    6ED : 11011001;
    6EE : 11011001;
    6EF : 11011001;
    6F0 : 11011001;
    6F1 : 11011001;
    6F2 : 11011001;
    6F3 : 11011001;
    6F4 : 11011001;
    6F5 : 11011001;
    6F6 : 11011001;
    6F7 : 11011001;
    6F8 : 11011001;
    6F9 : 11011001;
    6FA : 11011001;
    6FB : 11011001;
    6FC : 11011001;
    6FD : 11011001;
    6FE : 11011001;
    6FF : 11011001;
    700 : 11011001;
    701 : 11011001;
    702 : 11011001;
    703 : 11011001;
    704 : 11011001;
    705 : 11011001;
    706 : 11011001;
    707 : 11011000;
    708 : 11011000;
    709 : 11011001;
    70A : 11010111;
    70B : 11011000;
    70C : 11011000;
    70D : 11011000;
    70E : 11010110;
    70F : 11010111;
    710 : 11010111;
    711 : 11010111;
    712 : 11010111;
    713 : 11010111;
    714 : 11010110;
    715 : 11011000;
    716 : 11011000;
    717 : 11011001;
    718 : 11011010;
    719 : 11011010;
    71A : 11011011;
    71B : 11011001;
    71C : 11011011;
    71D : 11011010;
    71E : 11011010;
    71F : 11011010;
    720 : 11011011;
    721 : 11011011;
    722 : 11011010;
    723 : 11011011;
    724 : 11011011;
    725 : 11011010;
    726 : 11011001;
    727 : 11010111;
    728 : 11011000;
    729 : 11010111;
    72A : 11011000;
    72B : 11010111;
    72C : 11010111;
    72D : 11010111;
    72E : 11010110;
    72F : 11010111;
    730 : 11010111;
    731 : 11010111;
    732 : 11010111;
    733 : 11011000;
    734 : 11011000;
    735 : 11010111;
    736 : 11011000;
    737 : 11011000;
    738 : 11011000;
    739 : 11010111;
    73A : 11011000;
    73B : 11011000;
    73C : 11010111;
    73D : 11011000;
    73E : 11011000;
    73F : 11011000;
    740 : 11011000;
    741 : 11011000;
    742 : 11011000;
    743 : 11010111;
    744 : 11011001;
    745 : 11011000;
    746 : 11011000;
    747 : 11011000;
    748 : 11010111;
    749 : 11010111;
    74A : 11010111;
    74B : 11011000;
    74C : 11011000;
    74D : 11011001;
    74E : 11010111;
    74F : 11011001;
    750 : 11011001;
    751 : 11011000;
    752 : 11011000;
    753 : 11011000;
    754 : 11011001;
    755 : 11011001;
    756 : 11011001;
    757 : 11011001;
    758 : 11011001;
    759 : 11011001;
    75A : 11011001;
    75B : 11011001;
    75C : 11011001;
    75D : 11011001;
    75E : 11011001;
    75F : 11011001;
    760 : 11011001;
    761 : 11011001;
    762 : 11011001;
    763 : 11011001;
    764 : 11011001;
    765 : 11011001;
    766 : 11011001;
    767 : 11011001;
    768 : 11011001;
    769 : 11011001;
    76A : 11011001;
    76B : 11011001;
    76C : 11011001;
    76D : 11011001;
    76E : 11011001;
    76F : 11011001;
    770 : 11011001;
    771 : 11011001;
    772 : 11011001;
    773 : 11011001;
    774 : 11011001;
    775 : 11011001;
    776 : 11011001;
    777 : 11011001;
    778 : 11011001;
    779 : 11011001;
    77A : 11011001;
    77B : 11011001;
    77C : 11011001;
    77D : 11011001;
    77E : 11011001;
    77F : 11011001;
    780 : 11011001;
    781 : 11011001;
    782 : 11011001;
    783 : 11011001;
    784 : 11011001;
    785 : 11011001;
    786 : 11011001;
    787 : 11011001;
    788 : 11011001;
    789 : 11011001;
    78A : 11011001;
    78B : 11011001;
    78C : 11011001;
    78D : 11011001;
    78E : 11011001;
    78F : 11011001;
    790 : 11011001;
    791 : 11011001;
    792 : 11011001;
    793 : 11011001;
    794 : 11011001;
    795 : 11011001;
    796 : 11011001;
    797 : 11011001;
    798 : 11011001;
    799 : 11011001;
    79A : 11011001;
    79B : 11011001;
    79C : 11011001;
    79D : 11011001;
    79E : 11011001;
    79F : 11011001;
    7A0 : 11011001;
    7A1 : 11011001;
    7A2 : 11011001;
    7A3 : 11011001;
    7A4 : 11011001;
    7A5 : 11011001;
    7A6 : 11011001;
    7A7 : 11011000;
    7A8 : 11011001;
    7A9 : 11011000;
    7AA : 11011000;
    7AB : 11011010;
    7AC : 11010110;
    7AD : 11001110;
    7AE : 11000011;
    7AF : 10110011;
    7B0 : 10101000;
    7B1 : 10011111;
    7B2 : 10011010;
    7B3 : 10010101;
    7B4 : 10010001;
    7B5 : 10001011;
    7B6 : 10000011;
    7B7 : 01111001;
    7B8 : 01101111;
    7B9 : 01100011;
    7BA : 01011010;
    7BB : 01010101;
    7BC : 01010010;
    7BD : 01010101;
    7BE : 01011010;
    7BF : 01011101;
    7C0 : 01100001;
    7C1 : 01100010;
    7C2 : 01100011;
    7C3 : 01100101;
    7C4 : 01100111;
    7C5 : 01101100;
    7C6 : 01110001;
    7C7 : 01111010;
    7C8 : 10000111;
    7C9 : 10010101;
    7CA : 10011110;
    7CB : 10100011;
    7CC : 10101000;
    7CD : 10101100;
    7CE : 10110000;
    7CF : 10110100;
    7D0 : 10111010;
    7D1 : 11000001;
    7D2 : 11000101;
    7D3 : 11001000;
    7D4 : 11001010;
    7D5 : 11001011;
    7D6 : 11001001;
    7D7 : 11001000;
    7D8 : 11000110;
    7D9 : 11000101;
    7DA : 11000101;
    7DB : 11000110;
    7DC : 11000111;
    7DD : 11001010;
    7DE : 11001100;
    7DF : 11001100;
    7E0 : 11001100;
    7E1 : 11001101;
    7E2 : 11001100;
    7E3 : 11001010;
    7E4 : 11001001;
    7E5 : 11000111;
    7E6 : 11000010;
    7E7 : 10111110;
    7E8 : 10111001;
    7E9 : 10110010;
    7EA : 10101110;
    7EB : 11000100;
    7EC : 11011001;
    7ED : 11010111;
    7EE : 11011000;
    7EF : 11010111;
    7F0 : 11011000;
    7F1 : 11011001;
    7F2 : 11011000;
    7F3 : 11011001;
    7F4 : 11011000;
    7F5 : 11011001;
    7F6 : 11011001;
    7F7 : 11011001;
    7F8 : 11011001;
    7F9 : 11011001;
    7FA : 11011001;
    7FB : 11011001;
    7FC : 11011001;
    7FD : 11011001;
    7FE : 11011001;
    7FF : 11011001;
    800 : 11011001;
    801 : 11011001;
    802 : 11011001;
    803 : 11011001;
    804 : 11011001;
    805 : 11011001;
    806 : 11011001;
    807 : 11011001;
    808 : 11011001;
    809 : 11011001;
    80A : 11011001;
    80B : 11011001;
    80C : 11011001;
    80D : 11011001;
    80E : 11011001;
    80F : 11011001;
    810 : 11011001;
    811 : 11011001;
    812 : 11011001;
    813 : 11011001;
    814 : 11011001;
    815 : 11011001;
    816 : 11011001;
    817 : 11011001;
    818 : 11011001;
    819 : 11011001;
    81A : 11011001;
    81B : 11011001;
    81C : 11011001;
    81D : 11011001;
    81E : 11011001;
    81F : 11011001;
    820 : 11011001;
    821 : 11011001;
    822 : 11011001;
    823 : 11011001;
    824 : 11011001;
    825 : 11011001;
    826 : 11011001;
    827 : 11011001;
    828 : 11011001;
    829 : 11011001;
    82A : 11011001;
    82B : 11011001;
    82C : 11011001;
    82D : 11011001;
    82E : 11011001;
    82F : 11011001;
    830 : 11011001;
    831 : 11011001;
    832 : 11011001;
    833 : 11011001;
    834 : 11011001;
    835 : 11011001;
    836 : 11011001;
    837 : 11011001;
    838 : 11011001;
    839 : 11011001;
    83A : 11011001;
    83B : 11011001;
    83C : 11011001;
    83D : 11011001;
    83E : 11011001;
    83F : 11011001;
    840 : 11011001;
    841 : 11011001;
    842 : 11011001;
    843 : 11011001;
    844 : 11011001;
    845 : 11011001;
    846 : 11011001;
    847 : 11011000;
    848 : 11011000;
    849 : 11011000;
    84A : 11001111;
    84B : 01100011;
    84C : 00110001;
    84D : 00100010;
    84E : 00011111;
    84F : 00100001;
    850 : 00100011;
    851 : 00101000;
    852 : 00101100;
    853 : 00110001;
    854 : 00110101;
    855 : 00111001;
    856 : 00111011;
    857 : 00111111;
    858 : 01000100;
    859 : 01001010;
    85A : 01010010;
    85B : 01011001;
    85C : 01100001;
    85D : 01100111;
    85E : 01101110;
    85F : 01110000;
    860 : 01101111;
    861 : 01101010;
    862 : 01101000;
    863 : 01100101;
    864 : 01100101;
    865 : 01101000;
    866 : 01101101;
    867 : 01101100;
    868 : 01100111;
    869 : 01100110;
    86A : 01100011;
    86B : 01100001;
    86C : 01011100;
    86D : 01011000;
    86E : 01010100;
    86F : 01010000;
    870 : 01001010;
    871 : 01000011;
    872 : 00111111;
    873 : 00111100;
    874 : 00111011;
    875 : 00110111;
    876 : 00110010;
    877 : 00110110;
    878 : 01000011;
    879 : 01000000;
    87A : 00111101;
    87B : 00111001;
    87C : 00110110;
    87D : 00110011;
    87E : 00110000;
    87F : 00101110;
    880 : 00101110;
    881 : 00101111;
    882 : 00110001;
    883 : 00110100;
    884 : 00110110;
    885 : 00110110;
    886 : 00110111;
    887 : 00111010;
    888 : 00111101;
    889 : 01000000;
    88A : 01000001;
    88B : 00100010;
    88C : 01011010;
    88D : 10100001;
    88E : 11001111;
    88F : 11011001;
    890 : 11011000;
    891 : 11011000;
    892 : 11011000;
    893 : 11011001;
    894 : 11011001;
    895 : 11011001;
    896 : 11011001;
    897 : 11011001;
    898 : 11011001;
    899 : 11011001;
    89A : 11011001;
    89B : 11011001;
    89C : 11011001;
    89D : 11011001;
    89E : 11011001;
    89F : 11011001;
    8A0 : 11011001;
    8A1 : 11011001;
    8A2 : 11011001;
    8A3 : 11011001;
    8A4 : 11011001;
    8A5 : 11011001;
    8A6 : 11011001;
    8A7 : 11011001;
    8A8 : 11011001;
    8A9 : 11011001;
    8AA : 11011001;
    8AB : 11011001;
    8AC : 11011001;
    8AD : 11011001;
    8AE : 11011001;
    8AF : 11011001;
    8B0 : 11011001;
    8B1 : 11011001;
    8B2 : 11011001;
    8B3 : 11011001;
    8B4 : 11011001;
    8B5 : 11011001;
    8B6 : 11011001;
    8B7 : 11011001;
    8B8 : 11011001;
    8B9 : 11011001;
    8BA : 11011001;
    8BB : 11011001;
    8BC : 11011001;
    8BD : 11011001;
    8BE : 11011001;
    8BF : 11011001;
    8C0 : 11011001;
    8C1 : 11011001;
    8C2 : 11011001;
    8C3 : 11011001;
    8C4 : 11011001;
    8C5 : 11011001;
    8C6 : 11011001;
    8C7 : 11011001;
    8C8 : 11011001;
    8C9 : 11011001;
    8CA : 11011001;
    8CB : 11011001;
    8CC : 11011001;
    8CD : 11011001;
    8CE : 11011001;
    8CF : 11011001;
    8D0 : 11011001;
    8D1 : 11011001;
    8D2 : 11011001;
    8D3 : 11011001;
    8D4 : 11011001;
    8D5 : 11011001;
    8D6 : 11011001;
    8D7 : 11011001;
    8D8 : 11011001;
    8D9 : 11011001;
    8DA : 11011001;
    8DB : 11011001;
    8DC : 11011001;
    8DD : 11011001;
    8DE : 11011001;
    8DF : 11011001;
    8E0 : 11011001;
    8E1 : 11011001;
    8E2 : 11011001;
    8E3 : 11011001;
    8E4 : 11011001;
    8E5 : 11011001;
    8E6 : 11011001;
    8E7 : 11011000;
    8E8 : 11011000;
    8E9 : 11011000;
    8EA : 10111100;
    8EB : 00111101;
    8EC : 10110100;
    8ED : 10110011;
    8EE : 10110110;
    8EF : 10111010;
    8F0 : 10111110;
    8F1 : 11000010;
    8F2 : 11000110;
    8F3 : 11001001;
    8F4 : 11001010;
    8F5 : 11001011;
    8F6 : 11001110;
    8F7 : 11001110;
    8F8 : 11001111;
    8F9 : 11010000;
    8FA : 11010001;
    8FB : 11010010;
    8FC : 11010010;
    8FD : 11010010;
    8FE : 11010011;
    8FF : 11010011;
    900 : 11010010;
    901 : 11010011;
    902 : 11010010;
    903 : 11010001;
    904 : 11010010;
    905 : 11010011;
    906 : 11010011;
    907 : 11010011;
    908 : 11010011;
    909 : 11010010;
    90A : 11010011;
    90B : 11010010;
    90C : 11010010;
    90D : 11010010;
    90E : 11010001;
    90F : 11010000;
    910 : 11001110;
    911 : 11001100;
    912 : 11001010;
    913 : 11001001;
    914 : 11000111;
    915 : 11000110;
    916 : 11000011;
    917 : 11000110;
    918 : 11001100;
    919 : 11001011;
    91A : 11001001;
    91B : 11000111;
    91C : 11000110;
    91D : 11000100;
    91E : 11000010;
    91F : 11000001;
    920 : 11000000;
    921 : 11000000;
    922 : 11000010;
    923 : 11000100;
    924 : 11000101;
    925 : 11000110;
    926 : 11000110;
    927 : 11001001;
    928 : 11001010;
    929 : 11001011;
    92A : 11000111;
    92B : 00111110;
    92C : 10010100;
    92D : 01011000;
    92E : 01000010;
    92F : 10000110;
    930 : 11001010;
    931 : 11010110;
    932 : 11011000;
    933 : 11011000;
    934 : 11011000;
    935 : 11011000;
    936 : 11011001;
    937 : 11011001;
    938 : 11011001;
    939 : 11011001;
    93A : 11011001;
    93B : 11011001;
    93C : 11011001;
    93D : 11011001;
    93E : 11011001;
    93F : 11011001;
    940 : 11011001;
    941 : 11011001;
    942 : 11011001;
    943 : 11011001;
    944 : 11011001;
    945 : 11011001;
    946 : 11011001;
    947 : 11011001;
    948 : 11011001;
    949 : 11011001;
    94A : 11011001;
    94B : 11011001;
    94C : 11011001;
    94D : 11011001;
    94E : 11011001;
    94F : 11011001;
    950 : 11011001;
    951 : 11011001;
    952 : 11011001;
    953 : 11011001;
    954 : 11011001;
    955 : 11011001;
    956 : 11011001;
    957 : 11011001;
    958 : 11011001;
    959 : 11011001;
    95A : 11011001;
    95B : 11011001;
    95C : 11011001;
    95D : 11011001;
    95E : 11011001;
    95F : 11011001;
    960 : 11011001;
    961 : 11011001;
    962 : 11011001;
    963 : 11011001;
    964 : 11011001;
    965 : 11011001;
    966 : 11011001;
    967 : 11011001;
    968 : 11011001;
    969 : 11011001;
    96A : 11011001;
    96B : 11011001;
    96C : 11011001;
    96D : 11011001;
    96E : 11011001;
    96F : 11011001;
    970 : 11011001;
    971 : 11011001;
    972 : 11011001;
    973 : 11011001;
    974 : 11011001;
    975 : 11011001;
    976 : 11011001;
    977 : 11011001;
    978 : 11011001;
    979 : 11011001;
    97A : 11011001;
    97B : 11011001;
    97C : 11011001;
    97D : 11011001;
    97E : 11011001;
    97F : 11011001;
    980 : 11011001;
    981 : 11011001;
    982 : 11011001;
    983 : 11011001;
    984 : 11011001;
    985 : 11011001;
    986 : 11011001;
    987 : 11011001;
    988 : 11011000;
    989 : 11011001;
    98A : 10110101;
    98B : 01000110;
    98C : 11011000;
    98D : 11010010;
    98E : 11010001;
    98F : 11010010;
    990 : 11010010;
    991 : 11010001;
    992 : 11010001;
    993 : 11010010;
    994 : 11010001;
    995 : 11010001;
    996 : 11010001;
    997 : 11010010;
    998 : 11010010;
    999 : 11010010;
    99A : 11010010;
    99B : 11010010;
    99C : 11010010;
    99D : 11010011;
    99E : 11010011;
    99F : 11010011;
    9A0 : 11010011;
    9A1 : 11010010;
    9A2 : 11010010;
    9A3 : 11010010;
    9A4 : 11010010;
    9A5 : 11010010;
    9A6 : 11010010;
    9A7 : 11010011;
    9A8 : 11010010;
    9A9 : 11010010;
    9AA : 11010011;
    9AB : 11010010;
    9AC : 11010010;
    9AD : 11010010;
    9AE : 11010010;
    9AF : 11010010;
    9B0 : 11010001;
    9B1 : 11010001;
    9B2 : 11010001;
    9B3 : 11010001;
    9B4 : 11010001;
    9B5 : 11010001;
    9B6 : 11010010;
    9B7 : 11010001;
    9B8 : 11010001;
    9B9 : 11010001;
    9BA : 11010001;
    9BB : 11010001;
    9BC : 11010001;
    9BD : 11010001;
    9BE : 11010001;
    9BF : 11010001;
    9C0 : 11010001;
    9C1 : 11010001;
    9C2 : 11010001;
    9C3 : 11010001;
    9C4 : 11010001;
    9C5 : 11010001;
    9C6 : 11010001;
    9C7 : 11010001;
    9C8 : 11010001;
    9C9 : 11010001;
    9CA : 11001110;
    9CB : 01000110;
    9CC : 10110101;
    9CD : 10111010;
    9CE : 10100001;
    9CF : 01010000;
    9D0 : 01100101;
    9D1 : 11011000;
    9D2 : 11011000;
    9D3 : 11011001;
    9D4 : 11011001;
    9D5 : 11011001;
    9D6 : 11011001;
    9D7 : 11011001;
    9D8 : 11011001;
    9D9 : 11011001;
    9DA : 11011001;
    9DB : 11011001;
    9DC : 11011001;
    9DD : 11011001;
    9DE : 11011001;
    9DF : 11011001;
    9E0 : 11011001;
    9E1 : 11011001;
    9E2 : 11011001;
    9E3 : 11011001;
    9E4 : 11011001;
    9E5 : 11011001;
    9E6 : 11011001;
    9E7 : 11011001;
    9E8 : 11011001;
    9E9 : 11011001;
    9EA : 11011001;
    9EB : 11011001;
    9EC : 11011001;
    9ED : 11011001;
    9EE : 11011001;
    9EF : 11011001;
    9F0 : 11011001;
    9F1 : 11011001;
    9F2 : 11011001;
    9F3 : 11011001;
    9F4 : 11011001;
    9F5 : 11011001;
    9F6 : 11011001;
    9F7 : 11011001;
    9F8 : 11011001;
    9F9 : 11011001;
    9FA : 11011001;
    9FB : 11011001;
    9FC : 11011001;
    9FD : 11011001;
    9FE : 11011001;
    9FF : 11011001;
    A00 : 11011001;
    A01 : 11011001;
    A02 : 11011001;
    A03 : 11011001;
    A04 : 11011001;
    A05 : 11011001;
    A06 : 11011001;
    A07 : 11011001;
    A08 : 11011001;
    A09 : 11011001;
    A0A : 11011001;
    A0B : 11011001;
    A0C : 11011001;
    A0D : 11011001;
    A0E : 11011001;
    A0F : 11011001;
    A10 : 11011001;
    A11 : 11011001;
    A12 : 11011001;
    A13 : 11011001;
    A14 : 11011001;
    A15 : 11011001;
    A16 : 11011001;
    A17 : 11011001;
    A18 : 11011001;
    A19 : 11011001;
    A1A : 11011001;
    A1B : 11011001;
    A1C : 11011001;
    A1D : 11011001;
    A1E : 11011001;
    A1F : 11011001;
    A20 : 11011001;
    A21 : 11011001;
    A22 : 11011001;
    A23 : 11011001;
    A24 : 11011001;
    A25 : 11011001;
    A26 : 11011001;
    A27 : 11011001;
    A28 : 11011000;
    A29 : 11011000;
    A2A : 10101111;
    A2B : 01000100;
    A2C : 11011000;
    A2D : 11010011;
    A2E : 11010011;
    A2F : 11010011;
    A30 : 11010010;
    A31 : 11010011;
    A32 : 11010011;
    A33 : 11010011;
    A34 : 11010011;
    A35 : 11010011;
    A36 : 11010011;
    A37 : 11010010;
    A38 : 11010011;
    A39 : 11010011;
    A3A : 11010011;
    A3B : 11010010;
    A3C : 11010010;
    A3D : 11010011;
    A3E : 11010011;
    A3F : 11010011;
    A40 : 11010011;
    A41 : 11010010;
    A42 : 11010011;
    A43 : 11010011;
    A44 : 11010011;
    A45 : 11010010;
    A46 : 11010011;
    A47 : 11010011;
    A48 : 11010011;
    A49 : 11010011;
    A4A : 11010011;
    A4B : 11010011;
    A4C : 11010011;
    A4D : 11010011;
    A4E : 11010011;
    A4F : 11010011;
    A50 : 11010011;
    A51 : 11010011;
    A52 : 11010011;
    A53 : 11010011;
    A54 : 11010011;
    A55 : 11010011;
    A56 : 11010011;
    A57 : 11010011;
    A58 : 11010011;
    A59 : 11010011;
    A5A : 11010011;
    A5B : 11010011;
    A5C : 11010011;
    A5D : 11010011;
    A5E : 11010011;
    A5F : 11010011;
    A60 : 11010010;
    A61 : 11010011;
    A62 : 11010011;
    A63 : 11010011;
    A64 : 11010011;
    A65 : 11010011;
    A66 : 11010011;
    A67 : 11010011;
    A68 : 11010010;
    A69 : 11010010;
    A6A : 11010000;
    A6B : 01001001;
    A6C : 10101111;
    A6D : 10011110;
    A6E : 10100110;
    A6F : 10010110;
    A70 : 01010011;
    A71 : 11011001;
    A72 : 11011001;
    A73 : 11011000;
    A74 : 11011001;
    A75 : 11011001;
    A76 : 11011001;
    A77 : 11011001;
    A78 : 11011001;
    A79 : 11011001;
    A7A : 11011001;
    A7B : 11011001;
    A7C : 11011001;
    A7D : 11011001;
    A7E : 11011001;
    A7F : 11011001;
    A80 : 11011001;
    A81 : 11011001;
    A82 : 11011001;
    A83 : 11011001;
    A84 : 11011001;
    A85 : 11011001;
    A86 : 11011001;
    A87 : 11011001;
    A88 : 11011001;
    A89 : 11011001;
    A8A : 11011001;
    A8B : 11011001;
    A8C : 11011001;
    A8D : 11011001;
    A8E : 11011001;
    A8F : 11011001;
    A90 : 11011001;
    A91 : 11011001;
    A92 : 11011001;
    A93 : 11011001;
    A94 : 11011001;
    A95 : 11011001;
    A96 : 11011001;
    A97 : 11011001;
    A98 : 11011001;
    A99 : 11011001;
    A9A : 11011001;
    A9B : 11011001;
    A9C : 11011001;
    A9D : 11011001;
    A9E : 11011001;
    A9F : 11011001;
    AA0 : 11011001;
    AA1 : 11011001;
    AA2 : 11011001;
    AA3 : 11011001;
    AA4 : 11011001;
    AA5 : 11011001;
    AA6 : 11011001;
    AA7 : 11011001;
    AA8 : 11011001;
    AA9 : 11011001;
    AAA : 11011001;
    AAB : 11011001;
    AAC : 11011001;
    AAD : 11011001;
    AAE : 11011001;
    AAF : 11011001;
    AB0 : 11011001;
    AB1 : 11011001;
    AB2 : 11011001;
    AB3 : 11011001;
    AB4 : 11011001;
    AB5 : 11011001;
    AB6 : 11011001;
    AB7 : 11011001;
    AB8 : 11011001;
    AB9 : 11011001;
    ABA : 11011001;
    ABB : 11011001;
    ABC : 11011001;
    ABD : 11011001;
    ABE : 11011001;
    ABF : 11011001;
    AC0 : 11011001;
    AC1 : 11011001;
    AC2 : 11011001;
    AC3 : 11011001;
    AC4 : 11011001;
    AC5 : 11011001;
    AC6 : 11011001;
    AC7 : 11011000;
    AC8 : 11011000;
    AC9 : 11011000;
    ACA : 10101011;
    ACB : 01000101;
    ACC : 11011000;
    ACD : 11010011;
    ACE : 11010011;
    ACF : 11010011;
    AD0 : 11010010;
    AD1 : 11010010;
    AD2 : 11010010;
    AD3 : 11010011;
    AD4 : 11010011;
    AD5 : 11010010;
    AD6 : 11010011;
    AD7 : 11010010;
    AD8 : 11010010;
    AD9 : 11010010;
    ADA : 11010011;
    ADB : 11010011;
    ADC : 11010011;
    ADD : 11010011;
    ADE : 11010011;
    ADF : 11010011;
    AE0 : 11010011;
    AE1 : 11010011;
    AE2 : 11010011;
    AE3 : 11010011;
    AE4 : 11010011;
    AE5 : 11010010;
    AE6 : 11010011;
    AE7 : 11010011;
    AE8 : 11010011;
    AE9 : 11010011;
    AEA : 11010011;
    AEB : 11010011;
    AEC : 11010011;
    AED : 11010011;
    AEE : 11010011;
    AEF : 11010011;
    AF0 : 11010011;
    AF1 : 11010011;
    AF2 : 11010011;
    AF3 : 11010010;
    AF4 : 11010010;
    AF5 : 11010011;
    AF6 : 11010011;
    AF7 : 11010011;
    AF8 : 11010011;
    AF9 : 11010011;
    AFA : 11010011;
    AFB : 11010011;
    AFC : 11010011;
    AFD : 11010011;
    AFE : 11010011;
    AFF : 11010011;
    B00 : 11010011;
    B01 : 11010011;
    B02 : 11010011;
    B03 : 11010010;
    B04 : 11010010;
    B05 : 11010010;
    B06 : 11010011;
    B07 : 11010010;
    B08 : 11010010;
    B09 : 11010010;
    B0A : 11001111;
    B0B : 01001000;
    B0C : 10110101;
    B0D : 10100000;
    B0E : 10011110;
    B0F : 10000110;
    B10 : 01010100;
    B11 : 11011011;
    B12 : 11011000;
    B13 : 11011000;
    B14 : 11011000;
    B15 : 11011001;
    B16 : 11011001;
    B17 : 11011001;
    B18 : 11011001;
    B19 : 11011001;
    B1A : 11011001;
    B1B : 11011001;
    B1C : 11011001;
    B1D : 11011001;
    B1E : 11011001;
    B1F : 11011001;
    B20 : 11011001;
    B21 : 11011001;
    B22 : 11011001;
    B23 : 11011001;
    B24 : 11011001;
    B25 : 11011001;
    B26 : 11011001;
    B27 : 11011001;
    B28 : 11011001;
    B29 : 11011001;
    B2A : 11011001;
    B2B : 11011001;
    B2C : 11011001;
    B2D : 11011001;
    B2E : 11011001;
    B2F : 11011001;
    B30 : 11011001;
    B31 : 11011001;
    B32 : 11011001;
    B33 : 11011001;
    B34 : 11011001;
    B35 : 11011001;
    B36 : 11011001;
    B37 : 11011001;
    B38 : 11011001;
    B39 : 11011001;
    B3A : 11011001;
    B3B : 11011001;
    B3C : 11011001;
    B3D : 11011001;
    B3E : 11011001;
    B3F : 11011001;
    B40 : 11011001;
    B41 : 11011001;
    B42 : 11011001;
    B43 : 11011001;
    B44 : 11011001;
    B45 : 11011001;
    B46 : 11011001;
    B47 : 11011001;
    B48 : 11011001;
    B49 : 11011001;
    B4A : 11011001;
    B4B : 11011001;
    B4C : 11011001;
    B4D : 11011001;
    B4E : 11011001;
    B4F : 11011001;
    B50 : 11011001;
    B51 : 11011001;
    B52 : 11011001;
    B53 : 11011001;
    B54 : 11011001;
    B55 : 11011001;
    B56 : 11011001;
    B57 : 11011001;
    B58 : 11011001;
    B59 : 11011001;
    B5A : 11011001;
    B5B : 11011001;
    B5C : 11011001;
    B5D : 11011001;
    B5E : 11011001;
    B5F : 11011001;
    B60 : 11011001;
    B61 : 11011001;
    B62 : 11011001;
    B63 : 11011001;
    B64 : 11011001;
    B65 : 11011001;
    B66 : 11011001;
    B67 : 11011001;
    B68 : 11011001;
    B69 : 11011000;
    B6A : 10100111;
    B6B : 01000100;
    B6C : 11010111;
    B6D : 11010011;
    B6E : 11010010;
    B6F : 11010011;
    B70 : 11010011;
    B71 : 11010011;
    B72 : 11010011;
    B73 : 11010001;
    B74 : 11010001;
    B75 : 11010000;
    B76 : 11010001;
    B77 : 11010010;
    B78 : 11010100;
    B79 : 11010101;
    B7A : 11010110;
    B7B : 11010111;
    B7C : 11010111;
    B7D : 11011000;
    B7E : 11011000;
    B7F : 11011000;
    B80 : 11011000;
    B81 : 11011000;
    B82 : 11011000;
    B83 : 11011000;
    B84 : 11011000;
    B85 : 11011000;
    B86 : 11011000;
    B87 : 11011000;
    B88 : 11011000;
    B89 : 11011000;
    B8A : 11011000;
    B8B : 11011000;
    B8C : 11011000;
    B8D : 11011000;
    B8E : 11011000;
    B8F : 11010111;
    B90 : 11010111;
    B91 : 11010111;
    B92 : 11010111;
    B93 : 11010110;
    B94 : 11010110;
    B95 : 11010101;
    B96 : 11010100;
    B97 : 11010100;
    B98 : 11010101;
    B99 : 11010110;
    B9A : 11010111;
    B9B : 11010111;
    B9C : 11011000;
    B9D : 11011000;
    B9E : 11011000;
    B9F : 11010111;
    BA0 : 11010111;
    BA1 : 11010111;
    BA2 : 11010011;
    BA3 : 11010001;
    BA4 : 11010010;
    BA5 : 11010011;
    BA6 : 11010011;
    BA7 : 11010011;
    BA8 : 11010011;
    BA9 : 11010010;
    BAA : 11010000;
    BAB : 01000110;
    BAC : 10110110;
    BAD : 10011111;
    BAE : 10011111;
    BAF : 10001001;
    BB0 : 01010010;
    BB1 : 11011001;
    BB2 : 11011001;
    BB3 : 11011000;
    BB4 : 11011001;
    BB5 : 11011001;
    BB6 : 11011001;
    BB7 : 11011001;
    BB8 : 11011001;
    BB9 : 11011001;
    BBA : 11011001;
    BBB : 11011001;
    BBC : 11011001;
    BBD : 11011001;
    BBE : 11011001;
    BBF : 11011001;
    BC0 : 11011001;
    BC1 : 11011001;
    BC2 : 11011001;
    BC3 : 11011001;
    BC4 : 11011001;
    BC5 : 11011001;
    BC6 : 11011001;
    BC7 : 11011001;
    BC8 : 11011001;
    BC9 : 11011001;
    BCA : 11011001;
    BCB : 11011001;
    BCC : 11011001;
    BCD : 11011001;
    BCE : 11011001;
    BCF : 11011001;
    BD0 : 11011001;
    BD1 : 11011001;
    BD2 : 11011001;
    BD3 : 11011001;
    BD4 : 11011001;
    BD5 : 11011001;
    BD6 : 11011001;
    BD7 : 11011001;
    BD8 : 11011001;
    BD9 : 11011001;
    BDA : 11011001;
    BDB : 11011001;
    BDC : 11011001;
    BDD : 11011001;
    BDE : 11011001;
    BDF : 11011001;
    BE0 : 11011001;
    BE1 : 11011001;
    BE2 : 11011001;
    BE3 : 11011001;
    BE4 : 11011001;
    BE5 : 11011001;
    BE6 : 11011001;
    BE7 : 11011001;
    BE8 : 11011001;
    BE9 : 11011001;
    BEA : 11011001;
    BEB : 11011001;
    BEC : 11011001;
    BED : 11011001;
    BEE : 11011001;
    BEF : 11011001;
    BF0 : 11011001;
    BF1 : 11011001;
    BF2 : 11011001;
    BF3 : 11011001;
    BF4 : 11011001;
    BF5 : 11011001;
    BF6 : 11011001;
    BF7 : 11011001;
    BF8 : 11011001;
    BF9 : 11011001;
    BFA : 11011001;
    BFB : 11011001;
    BFC : 11011001;
    BFD : 11011001;
    BFE : 11011001;
    BFF : 11011001;
    C00 : 11011001;
    C01 : 11011001;
    C02 : 11011001;
    C03 : 11011001;
    C04 : 11011001;
    C05 : 11011001;
    C06 : 11011001;
    C07 : 11011001;
    C08 : 11011001;
    C09 : 11011000;
    C0A : 10100111;
    C0B : 01000110;
    C0C : 11010111;
    C0D : 11010010;
    C0E : 11010011;
    C0F : 11010011;
    C10 : 11010100;
    C11 : 11010110;
    C12 : 11010010;
    C13 : 11001110;
    C14 : 11000100;
    C15 : 10111001;
    C16 : 10101011;
    C17 : 10011100;
    C18 : 10001100;
    C19 : 01111111;
    C1A : 01110011;
    C1B : 01101011;
    C1C : 01100100;
    C1D : 01011110;
    C1E : 01010110;
    C1F : 01001111;
    C20 : 01000111;
    C21 : 01000001;
    C22 : 00111111;
    C23 : 00111111;
    C24 : 01000000;
    C25 : 00111111;
    C26 : 00111110;
    C27 : 00111101;
    C28 : 00111111;
    C29 : 01000101;
    C2A : 01001010;
    C2B : 01001100;
    C2C : 01001001;
    C2D : 01000011;
    C2E : 01000000;
    C2F : 00111111;
    C30 : 00111111;
    C31 : 00111111;
    C32 : 01000000;
    C33 : 01000000;
    C34 : 01000000;
    C35 : 00111110;
    C36 : 00111110;
    C37 : 00111110;
    C38 : 00111111;
    C39 : 01000010;
    C3A : 01000011;
    C3B : 01000100;
    C3C : 01000101;
    C3D : 01000101;
    C3E : 01000100;
    C3F : 01000110;
    C40 : 01001110;
    C41 : 01100111;
    C42 : 10001010;
    C43 : 10101101;
    C44 : 11010000;
    C45 : 11010011;
    C46 : 11010010;
    C47 : 11010011;
    C48 : 11010011;
    C49 : 11010010;
    C4A : 11001101;
    C4B : 01000010;
    C4C : 10110101;
    C4D : 10011110;
    C4E : 10011110;
    C4F : 10001011;
    C50 : 01001111;
    C51 : 11011001;
    C52 : 11010111;
    C53 : 11011001;
    C54 : 11011000;
    C55 : 11011000;
    C56 : 11011000;
    C57 : 11011000;
    C58 : 11011000;
    C59 : 11011000;
    C5A : 11011001;
    C5B : 11011001;
    C5C : 11011001;
    C5D : 11011001;
    C5E : 11011001;
    C5F : 11011001;
    C60 : 11011001;
    C61 : 11011001;
    C62 : 11011001;
    C63 : 11011001;
    C64 : 11011001;
    C65 : 11011001;
    C66 : 11011001;
    C67 : 11011001;
    C68 : 11011001;
    C69 : 11011001;
    C6A : 11011001;
    C6B : 11011001;
    C6C : 11011001;
    C6D : 11011001;
    C6E : 11011001;
    C6F : 11011001;
    C70 : 11011001;
    C71 : 11011001;
    C72 : 11011001;
    C73 : 11011001;
    C74 : 11011001;
    C75 : 11011001;
    C76 : 11011001;
    C77 : 11011001;
    C78 : 11011001;
    C79 : 11011001;
    C7A : 11011001;
    C7B : 11011001;
    C7C : 11011001;
    C7D : 11011001;
    C7E : 11011001;
    C7F : 11011001;
    C80 : 11011001;
    C81 : 11011001;
    C82 : 11011001;
    C83 : 11011001;
    C84 : 11011001;
    C85 : 11011001;
    C86 : 11011001;
    C87 : 11011001;
    C88 : 11011001;
    C89 : 11011001;
    C8A : 11011001;
    C8B : 11011001;
    C8C : 11011001;
    C8D : 11011001;
    C8E : 11011001;
    C8F : 11011001;
    C90 : 11011001;
    C91 : 11011001;
    C92 : 11011001;
    C93 : 11011001;
    C94 : 11011001;
    C95 : 11011001;
    C96 : 11011001;
    C97 : 11011001;
    C98 : 11011001;
    C99 : 11011001;
    C9A : 11011001;
    C9B : 11011001;
    C9C : 11011001;
    C9D : 11011001;
    C9E : 11011001;
    C9F : 11011001;
    CA0 : 11011001;
    CA1 : 11011001;
    CA2 : 11011001;
    CA3 : 11011001;
    CA4 : 11011001;
    CA5 : 11011001;
    CA6 : 11011001;
    CA7 : 11011001;
    CA8 : 11011000;
    CA9 : 11011001;
    CAA : 10100100;
    CAB : 01001011;
    CAC : 11010111;
    CAD : 11010001;
    CAE : 11010010;
    CAF : 11010011;
    CB0 : 10100101;
    CB1 : 01010110;
    CB2 : 01001001;
    CB3 : 01000111;
    CB4 : 01001110;
    CB5 : 01010010;
    CB6 : 01011001;
    CB7 : 01101000;
    CB8 : 01110101;
    CB9 : 10000001;
    CBA : 10001110;
    CBB : 10011100;
    CBC : 10101000;
    CBD : 10110001;
    CBE : 10111000;
    CBF : 10111101;
    CC0 : 11000011;
    CC1 : 11001001;
    CC2 : 11001101;
    CC3 : 11001111;
    CC4 : 11001110;
    CC5 : 11001100;
    CC6 : 11001001;
    CC7 : 11001000;
    CC8 : 11000111;
    CC9 : 11000111;
    CCA : 11001001;
    CCB : 11001001;
    CCC : 11001010;
    CCD : 11001010;
    CCE : 11001110;
    CCF : 11001111;
    CD0 : 11010100;
    CD1 : 11011001;
    CD2 : 11011110;
    CD3 : 11100000;
    CD4 : 11100010;
    CD5 : 11100011;
    CD6 : 11100011;
    CD7 : 11100011;
    CD8 : 11100010;
    CD9 : 11100001;
    CDA : 11100000;
    CDB : 11011111;
    CDC : 11011011;
    CDD : 11010110;
    CDE : 11010011;
    CDF : 11010000;
    CE0 : 11000100;
    CE1 : 10011111;
    CE2 : 10000100;
    CE3 : 01000100;
    CE4 : 10110011;
    CE5 : 11010010;
    CE6 : 11010010;
    CE7 : 11010011;
    CE8 : 11010011;
    CE9 : 11010010;
    CEA : 11001100;
    CEB : 01000001;
    CEC : 10110101;
    CED : 10011101;
    CEE : 10011110;
    CEF : 10010000;
    CF0 : 00110100;
    CF1 : 10100101;
    CF2 : 11010111;
    CF3 : 11010111;
    CF4 : 11011000;
    CF5 : 11011000;
    CF6 : 11011000;
    CF7 : 11011010;
    CF8 : 11011000;
    CF9 : 11011000;
    CFA : 11011001;
    CFB : 11011001;
    CFC : 11011001;
    CFD : 11011001;
    CFE : 11011001;
    CFF : 11011001;
    D00 : 11011001;
    D01 : 11011001;
    D02 : 11011001;
    D03 : 11011001;
    D04 : 11011001;
    D05 : 11011001;
    D06 : 11011001;
    D07 : 11011001;
    D08 : 11011001;
    D09 : 11011001;
    D0A : 11011001;
    D0B : 11011001;
    D0C : 11011001;
    D0D : 11011001;
    D0E : 11011001;
    D0F : 11011001;
    D10 : 11011001;
    D11 : 11011001;
    D12 : 11011001;
    D13 : 11011001;
    D14 : 11011001;
    D15 : 11011001;
    D16 : 11011001;
    D17 : 11011001;
    D18 : 11011001;
    D19 : 11011001;
    D1A : 11011001;
    D1B : 11011001;
    D1C : 11011001;
    D1D : 11011001;
    D1E : 11011001;
    D1F : 11011001;
    D20 : 11011001;
    D21 : 11011001;
    D22 : 11011001;
    D23 : 11011001;
    D24 : 11011001;
    D25 : 11011001;
    D26 : 11011001;
    D27 : 11011001;
    D28 : 11011001;
    D29 : 11011001;
    D2A : 11011001;
    D2B : 11011001;
    D2C : 11011001;
    D2D : 11011001;
    D2E : 11011001;
    D2F : 11011001;
    D30 : 11011001;
    D31 : 11011001;
    D32 : 11011001;
    D33 : 11011001;
    D34 : 11011001;
    D35 : 11011001;
    D36 : 11011001;
    D37 : 11011001;
    D38 : 11011001;
    D39 : 11011001;
    D3A : 11011001;
    D3B : 11011001;
    D3C : 11011001;
    D3D : 11011001;
    D3E : 11011001;
    D3F : 11011001;
    D40 : 11011001;
    D41 : 11011001;
    D42 : 11011001;
    D43 : 11011001;
    D44 : 11011001;
    D45 : 11011001;
    D46 : 11011001;
    D47 : 11011001;
    D48 : 11011000;
    D49 : 11011000;
    D4A : 10011110;
    D4B : 01010110;
    D4C : 11010111;
    D4D : 11010010;
    D4E : 11010010;
    D4F : 11010011;
    D50 : 01100100;
    D51 : 10110111;
    D52 : 11011010;
    D53 : 11100011;
    D54 : 11101100;
    D55 : 11110010;
    D56 : 11110111;
    D57 : 11111100;
    D58 : 11111100;
    D59 : 11111011;
    D5A : 11111010;
    D5B : 11111010;
    D5C : 11111011;
    D5D : 11111011;
    D5E : 11111011;
    D5F : 11111100;
    D60 : 11111011;
    D61 : 11111100;
    D62 : 11111101;
    D63 : 11111101;
    D64 : 11111101;
    D65 : 11111101;
    D66 : 11111100;
    D67 : 11111100;
    D68 : 11111100;
    D69 : 11111101;
    D6A : 11111101;
    D6B : 11111101;
    D6C : 11111100;
    D6D : 11111101;
    D6E : 11111100;
    D6F : 11111101;
    D70 : 11111101;
    D71 : 11111101;
    D72 : 11111110;
    D73 : 11111101;
    D74 : 11111101;
    D75 : 11111101;
    D76 : 11111101;
    D77 : 11111110;
    D78 : 11111101;
    D79 : 11111100;
    D7A : 11111101;
    D7B : 11111101;
    D7C : 11111110;
    D7D : 11111101;
    D7E : 11111101;
    D7F : 11111100;
    D80 : 11111011;
    D81 : 11111001;
    D82 : 11111000;
    D83 : 01100001;
    D84 : 10110011;
    D85 : 11010000;
    D86 : 11010011;
    D87 : 11010011;
    D88 : 11010011;
    D89 : 11010010;
    D8A : 11001100;
    D8B : 00111111;
    D8C : 10110010;
    D8D : 10011110;
    D8E : 10011101;
    D8F : 10010011;
    D90 : 00101111;
    D91 : 01001100;
    D92 : 01100001;
    D93 : 11000011;
    D94 : 11011000;
    D95 : 11010110;
    D96 : 11011001;
    D97 : 11011000;
    D98 : 11011001;
    D99 : 11011000;
    D9A : 11011001;
    D9B : 11011001;
    D9C : 11011001;
    D9D : 11011001;
    D9E : 11011001;
    D9F : 11011001;
    DA0 : 11011001;
    DA1 : 11011001;
    DA2 : 11011001;
    DA3 : 11011001;
    DA4 : 11011001;
    DA5 : 11011001;
    DA6 : 11011001;
    DA7 : 11011001;
    DA8 : 11011001;
    DA9 : 11011001;
    DAA : 11011001;
    DAB : 11011001;
    DAC : 11011001;
    DAD : 11011001;
    DAE : 11011001;
    DAF : 11011001;
    DB0 : 11011001;
    DB1 : 11011001;
    DB2 : 11011001;
    DB3 : 11011001;
    DB4 : 11011001;
    DB5 : 11011001;
    DB6 : 11011001;
    DB7 : 11011001;
    DB8 : 11011001;
    DB9 : 11011001;
    DBA : 11011001;
    DBB : 11011001;
    DBC : 11011001;
    DBD : 11011001;
    DBE : 11011001;
    DBF : 11011001;
    DC0 : 11011001;
    DC1 : 11011001;
    DC2 : 11011001;
    DC3 : 11011001;
    DC4 : 11011001;
    DC5 : 11011001;
    DC6 : 11011001;
    DC7 : 11011001;
    DC8 : 11011001;
    DC9 : 11011001;
    DCA : 11011001;
    DCB : 11011001;
    DCC : 11011001;
    DCD : 11011001;
    DCE : 11011001;
    DCF : 11011001;
    DD0 : 11011001;
    DD1 : 11011001;
    DD2 : 11011001;
    DD3 : 11011001;
    DD4 : 11011001;
    DD5 : 11011001;
    DD6 : 11011001;
    DD7 : 11011001;
    DD8 : 11011001;
    DD9 : 11011001;
    DDA : 11011001;
    DDB : 11011001;
    DDC : 11011001;
    DDD : 11011001;
    DDE : 11011001;
    DDF : 11011001;
    DE0 : 11011001;
    DE1 : 11011001;
    DE2 : 11011001;
    DE3 : 11011001;
    DE4 : 11011001;
    DE5 : 11011001;
    DE6 : 11011001;
    DE7 : 11011000;
    DE8 : 11011001;
    DE9 : 11011001;
    DEA : 10010100;
    DEB : 01100111;
    DEC : 11010110;
    DED : 11010011;
    DEE : 11010001;
    DEF : 11001101;
    DF0 : 01011101;
    DF1 : 11101010;
    DF2 : 11111101;
    DF3 : 11111101;
    DF4 : 11111101;
    DF5 : 11111101;
    DF6 : 11111110;
    DF7 : 11111110;
    DF8 : 11111110;
    DF9 : 11111110;
    DFA : 11111110;
    DFB : 11111111;
    DFC : 11111110;
    DFD : 11111111;
    DFE : 11111111;
    DFF : 11111110;
    E00 : 11111110;
    E01 : 11111111;
    E02 : 11111110;
    E03 : 11111110;
    E04 : 11111110;
    E05 : 11111110;
    E06 : 11111111;
    E07 : 11111111;
    E08 : 11111110;
    E09 : 11111111;
    E0A : 11111110;
    E0B : 11111111;
    E0C : 11111110;
    E0D : 11111111;
    E0E : 11111110;
    E0F : 11111110;
    E10 : 11111110;
    E11 : 11111111;
    E12 : 11111110;
    E13 : 11111111;
    E14 : 11111110;
    E15 : 11111110;
    E16 : 11111110;
    E17 : 11111111;
    E18 : 11111111;
    E19 : 11111110;
    E1A : 11111110;
    E1B : 11111111;
    E1C : 11111111;
    E1D : 11111110;
    E1E : 11111111;
    E1F : 11111110;
    E20 : 11111110;
    E21 : 11111100;
    E22 : 11110101;
    E23 : 01010101;
    E24 : 10111010;
    E25 : 11010001;
    E26 : 11010011;
    E27 : 11010010;
    E28 : 11010011;
    E29 : 11010001;
    E2A : 11001101;
    E2B : 01000001;
    E2C : 10101110;
    E2D : 10011110;
    E2E : 10011101;
    E2F : 10010101;
    E30 : 00110100;
    E31 : 10000111;
    E32 : 01100101;
    E33 : 00111001;
    E34 : 10011101;
    E35 : 11010101;
    E36 : 11010111;
    E37 : 11010111;
    E38 : 11010111;
    E39 : 11011000;
    E3A : 11011001;
    E3B : 11011001;
    E3C : 11011001;
    E3D : 11011001;
    E3E : 11011001;
    E3F : 11011001;
    E40 : 11011001;
    E41 : 11011001;
    E42 : 11011001;
    E43 : 11011001;
    E44 : 11011001;
    E45 : 11011001;
    E46 : 11011001;
    E47 : 11011001;
    E48 : 11011001;
    E49 : 11011001;
    E4A : 11011001;
    E4B : 11011001;
    E4C : 11011001;
    E4D : 11011001;
    E4E : 11011001;
    E4F : 11011001;
    E50 : 11011001;
    E51 : 11011001;
    E52 : 11011001;
    E53 : 11011001;
    E54 : 11011001;
    E55 : 11011001;
    E56 : 11011001;
    E57 : 11011001;
    E58 : 11011001;
    E59 : 11011001;
    E5A : 11011001;
    E5B : 11011001;
    E5C : 11011001;
    E5D : 11011001;
    E5E : 11011001;
    E5F : 11011001;
    E60 : 11011001;
    E61 : 11011001;
    E62 : 11011001;
    E63 : 11011001;
    E64 : 11011001;
    E65 : 11011001;
    E66 : 11011001;
    E67 : 11011001;
    E68 : 11011001;
    E69 : 11011001;
    E6A : 11011001;
    E6B : 11011001;
    E6C : 11011001;
    E6D : 11011001;
    E6E : 11011001;
    E6F : 11011001;
    E70 : 11011001;
    E71 : 11011001;
    E72 : 11011001;
    E73 : 11011001;
    E74 : 11011001;
    E75 : 11011001;
    E76 : 11011001;
    E77 : 11011001;
    E78 : 11011001;
    E79 : 11011001;
    E7A : 11011001;
    E7B : 11011001;
    E7C : 11011001;
    E7D : 11011001;
    E7E : 11011001;
    E7F : 11011001;
    E80 : 11011001;
    E81 : 11011001;
    E82 : 11011001;
    E83 : 11011001;
    E84 : 11011001;
    E85 : 11011001;
    E86 : 11011001;
    E87 : 11011001;
    E88 : 11011000;
    E89 : 11011001;
    E8A : 10000110;
    E8B : 01110010;
    E8C : 11010101;
    E8D : 11010011;
    E8E : 11010010;
    E8F : 11001110;
    E90 : 01011110;
    E91 : 11101110;
    E92 : 11111101;
    E93 : 11111110;
    E94 : 11111111;
    E95 : 11111111;
    E96 : 11111110;
    E97 : 11111111;
    E98 : 11111110;
    E99 : 11111111;
    E9A : 11111111;
    E9B : 11111110;
    E9C : 11111111;
    E9D : 11111111;
    E9E : 11111111;
    E9F : 11111111;
    EA0 : 11111111;
    EA1 : 11111111;
    EA2 : 11111111;
    EA3 : 11111111;
    EA4 : 11111111;
    EA5 : 11111111;
    EA6 : 11111110;
    EA7 : 11111111;
    EA8 : 11111111;
    EA9 : 11111111;
    EAA : 11111111;
    EAB : 11111111;
    EAC : 11111111;
    EAD : 11111111;
    EAE : 11111110;
    EAF : 11111111;
    EB0 : 11111111;
    EB1 : 11111111;
    EB2 : 11111110;
    EB3 : 11111111;
    EB4 : 11111110;
    EB5 : 11111111;
    EB6 : 11111111;
    EB7 : 11111111;
    EB8 : 11111110;
    EB9 : 11111110;
    EBA : 11111111;
    EBB : 11111111;
    EBC : 11111111;
    EBD : 11111111;
    EBE : 11111111;
    EBF : 11111110;
    EC0 : 11111110;
    EC1 : 11111101;
    EC2 : 11101100;
    EC3 : 01001110;
    EC4 : 11000000;
    EC5 : 11010010;
    EC6 : 11010010;
    EC7 : 11010011;
    EC8 : 11010011;
    EC9 : 11010010;
    ECA : 11001101;
    ECB : 01000000;
    ECC : 10101000;
    ECD : 10011101;
    ECE : 10011110;
    ECF : 10010110;
    ED0 : 00110000;
    ED1 : 01100010;
    ED2 : 10000000;
    ED3 : 10000111;
    ED4 : 00111101;
    ED5 : 01100110;
    ED6 : 11001010;
    ED7 : 11010111;
    ED8 : 11011001;
    ED9 : 11011000;
    EDA : 11011001;
    EDB : 11011001;
    EDC : 11011001;
    EDD : 11011001;
    EDE : 11011001;
    EDF : 11011001;
    EE0 : 11011001;
    EE1 : 11011001;
    EE2 : 11011001;
    EE3 : 11011001;
    EE4 : 11011001;
    EE5 : 11011001;
    EE6 : 11011001;
    EE7 : 11011001;
    EE8 : 11011001;
    EE9 : 11011001;
    EEA : 11011001;
    EEB : 11011001;
    EEC : 11011001;
    EED : 11011001;
    EEE : 11011001;
    EEF : 11011001;
    EF0 : 11011001;
    EF1 : 11011001;
    EF2 : 11011001;
    EF3 : 11011001;
    EF4 : 11011001;
    EF5 : 11011001;
    EF6 : 11011001;
    EF7 : 11011001;
    EF8 : 11011001;
    EF9 : 11011001;
    EFA : 11011001;
    EFB : 11011001;
    EFC : 11011001;
    EFD : 11011001;
    EFE : 11011001;
    EFF : 11011001;
    F00 : 11011001;
    F01 : 11011001;
    F02 : 11011001;
    F03 : 11011001;
    F04 : 11011001;
    F05 : 11011001;
    F06 : 11011001;
    F07 : 11011001;
    F08 : 11011001;
    F09 : 11011001;
    F0A : 11011001;
    F0B : 11011001;
    F0C : 11011001;
    F0D : 11011001;
    F0E : 11011001;
    F0F : 11011001;
    F10 : 11011001;
    F11 : 11011001;
    F12 : 11011001;
    F13 : 11011001;
    F14 : 11011001;
    F15 : 11011001;
    F16 : 11011001;
    F17 : 11011001;
    F18 : 11011001;
    F19 : 11011001;
    F1A : 11011001;
    F1B : 11011001;
    F1C : 11011001;
    F1D : 11011001;
    F1E : 11011001;
    F1F : 11011001;
    F20 : 11011001;
    F21 : 11011001;
    F22 : 11011001;
    F23 : 11011001;
    F24 : 11011001;
    F25 : 11011001;
    F26 : 11011001;
    F27 : 11011001;
    F28 : 11011000;
    F29 : 11011001;
    F2A : 01111111;
    F2B : 01111001;
    F2C : 11010100;
    F2D : 11010011;
    F2E : 11010010;
    F2F : 11001111;
    F30 : 01011011;
    F31 : 11100111;
    F32 : 11111101;
    F33 : 11111110;
    F34 : 11111111;
    F35 : 11111111;
    F36 : 11111111;
    F37 : 11111111;
    F38 : 11111111;
    F39 : 11111111;
    F3A : 11111111;
    F3B : 11111111;
    F3C : 11111111;
    F3D : 11111111;
    F3E : 11111111;
    F3F : 11111111;
    F40 : 11111111;
    F41 : 11111111;
    F42 : 11111111;
    F43 : 11111111;
    F44 : 11111111;
    F45 : 11111111;
    F46 : 11111111;
    F47 : 11111111;
    F48 : 11111111;
    F49 : 11111111;
    F4A : 11111111;
    F4B : 11111111;
    F4C : 11111111;
    F4D : 11111111;
    F4E : 11111111;
    F4F : 11111111;
    F50 : 11111111;
    F51 : 11111111;
    F52 : 11111111;
    F53 : 11111111;
    F54 : 11111111;
    F55 : 11111111;
    F56 : 11111111;
    F57 : 11111111;
    F58 : 11111111;
    F59 : 11111111;
    F5A : 11111111;
    F5B : 11111111;
    F5C : 11111111;
    F5D : 11111111;
    F5E : 11111111;
    F5F : 11111110;
    F60 : 11111110;
    F61 : 11111100;
    F62 : 11100110;
    F63 : 01001011;
    F64 : 11000110;
    F65 : 11010010;
    F66 : 11010011;
    F67 : 11010010;
    F68 : 11010011;
    F69 : 11010001;
    F6A : 11001011;
    F6B : 00111011;
    F6C : 10101000;
    F6D : 10011110;
    F6E : 10011110;
    F6F : 10011000;
    F70 : 00110000;
    F71 : 01011101;
    F72 : 01100001;
    F73 : 01110011;
    F74 : 10010110;
    F75 : 01011111;
    F76 : 01010110;
    F77 : 11010110;
    F78 : 11011000;
    F79 : 11011000;
    F7A : 11011001;
    F7B : 11011001;
    F7C : 11011001;
    F7D : 11011001;
    F7E : 11011001;
    F7F : 11011001;
    F80 : 11011001;
    F81 : 11011001;
    F82 : 11011001;
    F83 : 11011001;
    F84 : 11011001;
    F85 : 11011001;
    F86 : 11011001;
    F87 : 11011001;
    F88 : 11011001;
    F89 : 11011001;
    F8A : 11011001;
    F8B : 11011001;
    F8C : 11011001;
    F8D : 11011001;
    F8E : 11011001;
    F8F : 11011001;
    F90 : 11011001;
    F91 : 11011001;
    F92 : 11011001;
    F93 : 11011001;
    F94 : 11011001;
    F95 : 11011001;
    F96 : 11011001;
    F97 : 11011001;
    F98 : 11011001;
    F99 : 11011001;
    F9A : 11011001;
    F9B : 11011001;
    F9C : 11011001;
    F9D : 11011001;
    F9E : 11011001;
    F9F : 11011001;
    FA0 : 11011001;
    FA1 : 11011001;
    FA2 : 11011001;
    FA3 : 11011001;
    FA4 : 11011001;
    FA5 : 11011001;
    FA6 : 11011001;
    FA7 : 11011001;
    FA8 : 11011001;
    FA9 : 11011001;
[...]
    4748 : 11011001;
    4749 : 11011001;
    474A : 11011001;
    474B : 11011001;
    474C : 11011001;
    474D : 11011001;
    474E : 11011001;
    474F : 11011001;
    4750 : 11011001;
    4751 : 11011001;
    4752 : 11011001;
    4753 : 11011001;
    4754 : 11011001;
    4755 : 11011001;
    4756 : 11011001;
    4757 : 11011001;
    4758 : 11011001;
    4759 : 11011001;
    475A : 11011001;
    475B : 11011001;
    475C : 11011001;
    475D : 11011001;
    475E : 11011001;
    475F : 11011001;
    4760 : 11011001;
    4761 : 11011001;
    4762 : 11011001;
    4763 : 11011001;
    4764 : 11011001;
    4765 : 11011001;
    4766 : 11011001;
    4767 : 11011001;
    4768 : 11011001;
    4769 : 11011001;
    476A : 11011001;
    476B : 11011001;
    476C : 11011001;
    476D : 11011001;
    476E : 11011001;
    476F : 11011001;
    4770 : 11011001;
    4771 : 11011001;
    4772 : 11011001;
    4773 : 11011001;
    4774 : 11011001;
    4775 : 11011001;
    4776 : 11011001;
    4777 : 11011001;
    4778 : 11011001;
    4779 : 11011001;
    477A : 11011001;
    477B : 11011001;
    477C : 11011001;
    477D : 11011001;
    477E : 11011001;
    477F : 11011001;
    4780 : 11011001;
    4781 : 11011001;
    4782 : 11011001;
    4783 : 11011001;
    4784 : 11011001;
    4785 : 11011001;
    4786 : 11011001;
    4787 : 11011001;
    4788 : 11011001;
    4789 : 11011001;
    478A : 11011001;
    478B : 11011001;
    478C : 11011001;
    478D : 11011001;
    478E : 11011001;
    478F : 11011001;
    4790 : 11011001;
    4791 : 11011001;
    4792 : 11011001;
    4793 : 11011001;
    4794 : 11011001;
    4795 : 11011001;
    4796 : 11011001;
    4797 : 11011001;
    4798 : 11011001;
    4799 : 11011001;
    479A : 11011001;
    479B : 11011001;
    479C : 11011001;
    479D : 11011001;
    479E : 11011001;
    479F : 11011001;
    47A0 : 11011001;
    47A1 : 11011001;
    47A2 : 11011001;
    47A3 : 11011001;
    47A4 : 11011001;
    47A5 : 11011001;
    47A6 : 11011001;
    47A7 : 11011001;
    47A8 : 11011001;
    47A9 : 11011001;
    47AA : 11011001;
    47AB : 11011001;
    47AC : 11011001;
    47AD : 11011001;
    47AE : 11011001;
    47AF : 11011001;
    47B0 : 11011001;
    47B1 : 11011001;
    47B2 : 11011001;
    47B3 : 11011001;
    47B4 : 11011001;
    47B5 : 11011001;
    47B6 : 11011001;
    47B7 : 11011001;
    47B8 : 11011001;
    47B9 : 11011001;
    47BA : 11011001;
    47BB : 11011001;
    47BC : 11011001;
    47BD : 11011001;
    47BE : 11011001;
    47BF : 11011001;
    47C0 : 11011001;
    47C1 : 11011001;
    47C2 : 11011001;
    47C3 : 11011001;
    47C4 : 11011001;
    47C5 : 11011001;
    47C6 : 11011001;
    47C7 : 11011001;
    47C8 : 11011001;
    47C9 : 11011001;
    47CA : 11011001;
    47CB : 11011001;
    47CC : 11011001;
    47CD : 11011001;
    47CE : 11011001;
    47CF : 11011001;
    47D0 : 11011001;
    47D1 : 11011001;
    47D2 : 11011001;
    47D3 : 11011001;
    47D4 : 11011001;
    47D5 : 11011001;
    47D6 : 11011001;
    47D7 : 11011001;
    47D8 : 11011001;
    47D9 : 11011001;
    47DA : 11011001;
    47DB : 11011001;
    47DC : 11011001;
    47DD : 11011001;
    47DE : 11011001;
    47DF : 11011001;
    47E0 : 11011001;
    47E1 : 11011001;
    47E2 : 11011001;
    47E3 : 11011001;
    47E4 : 11011001;
    47E5 : 11011001;
    47E6 : 11011001;
    47E7 : 11011001;
    47E8 : 11011001;
    47E9 : 11011001;
    47EA : 11011001;
    47EB : 11011001;
    47EC : 11011001;
    47ED : 11011001;
    47EE : 11011001;
    47EF : 11011001;
    47F0 : 11011001;
    47F1 : 11011001;
    47F2 : 11011001;
    47F3 : 11011001;
    47F4 : 11011001;
    47F5 : 11011001;
    47F6 : 11011001;
    47F7 : 11011001;
    47F8 : 11011001;
    47F9 : 11011001;
    47FA : 11011001;
    47FB : 11011001;
    47FC : 11011001;
    47FD : 11011001;
    47FE : 11011001;
    47FF : 11011001;
    4800 : 11011001;
    4801 : 11011001;
    4802 : 11011001;
    4803 : 11011001;
    4804 : 11011001;
    4805 : 11011001;
    4806 : 11011001;
    4807 : 11011001;
    4808 : 11011001;
    4809 : 11011001;
    480A : 11011001;
    480B : 11011001;
    480C : 11011001;
    480D : 11011001;
    480E : 11011001;
    480F : 11011001;
    4810 : 11011001;
    4811 : 11011001;
    4812 : 11011001;
    4813 : 11011001;
    4814 : 11011001;
    4815 : 11011001;
    4816 : 11011001;
    4817 : 11011001;
    4818 : 11011001;
    4819 : 11011001;
    481A : 11011001;
    481B : 11011001;
    481C : 11011001;
    481D : 11011001;
    481E : 11011001;
    481F : 11011001;
    4820 : 11011001;
    4821 : 11011001;
    4822 : 11011001;
    4823 : 11011001;
    4824 : 11011001;
    4825 : 11011001;
    4826 : 11011001;
    4827 : 11011001;
    4828 : 11011001;
    4829 : 11011001;
    482A : 11011001;
    482B : 11011001;
    482C : 11011001;
    482D : 11011001;
    482E : 11011001;
    482F : 11011001;
    4830 : 11011001;
    4831 : 11011001;
    4832 : 11011001;
    4833 : 11011001;
    4834 : 11011001;
    4835 : 11011001;
    4836 : 11011001;
    4837 : 11011001;
    4838 : 11011001;
    4839 : 11011001;
    483A : 11011001;
    483B : 11011001;
    483C : 11011001;
    483D : 11011001;
    483E : 11011001;
    483F : 11011001;
    4840 : 11011001;
    4841 : 11011001;
    4842 : 11011001;
    4843 : 11011001;
    4844 : 11011001;
    4845 : 11011001;
    4846 : 11011001;
    4847 : 11011001;
    4848 : 11011001;
    4849 : 11011001;
    484A : 11011001;
    484B : 11011001;
    484C : 11011001;
    484D : 11011001;
    484E : 11011001;
    484F : 11011001;
    4850 : 11011001;
    4851 : 11011001;
    4852 : 11011001;
    4853 : 11011001;
    4854 : 11011001;
    4855 : 11011001;
    4856 : 11011001;
    4857 : 11011001;
    4858 : 11011001;
    4859 : 11011001;
    485A : 11011001;
    485B : 11011001;
    485C : 11011001;
    485D : 11011001;
    485E : 11011001;
    485F : 11011001;
    4860 : 11011001;
    4861 : 11011001;
    4862 : 11011001;
    4863 : 11011001;
    4864 : 11011001;
    4865 : 11011001;
    4866 : 11011001;
    4867 : 11011001;
    4868 : 11011001;
    4869 : 11011001;
    486A : 11011001;
    486B : 11011001;
    486C : 11011001;
    486D : 11011001;
    486E : 11011001;
    486F : 11011001;
    4870 : 11011001;
    4871 : 11011001;
    4872 : 11011001;
    4873 : 11011001;
    4874 : 11011001;
    4875 : 11011001;
    4876 : 11011001;
    4877 : 11011001;
    4878 : 11011001;
    4879 : 11011001;
    487A : 11011001;
    487B : 11011001;
    487C : 11011001;
    487D : 11011001;
    487E : 11011001;
    487F : 11011001;
    4880 : 11011001;
    4881 : 11011001;
    4882 : 11011001;
    4883 : 11011001;
    4884 : 11011001;
    4885 : 11011001;
    4886 : 11011001;
    4887 : 11011001;
    4888 : 11011001;
    4889 : 11011001;
    488A : 11011001;
    488B : 11011001;
    488C : 11011001;
    488D : 11011001;
    488E : 11011001;
    488F : 11011001;
    4890 : 11011001;
    4891 : 11011001;
    4892 : 11011001;
    4893 : 11011001;
    4894 : 11011001;
    4895 : 11011001;
    4896 : 11011001;
    4897 : 11011001;
    4898 : 11011001;
    4899 : 11011001;
    489A : 11011001;
    489B : 11011001;
    489C : 11011001;
    489D : 11011001;
    489E : 11011001;
    489F : 11011001;
    48A0 : 11011001;
    48A1 : 11011001;
    48A2 : 11011001;
    48A3 : 11011001;
    48A4 : 11011001;
    48A5 : 11011001;
    48A6 : 11011001;
    48A7 : 11011001;
    48A8 : 11011001;
    48A9 : 11011001;
    48AA : 11011001;
    48AB : 11011001;
    48AC : 11011001;
    48AD : 11011001;
    48AE : 11011001;
    48AF : 11011001;
    48B0 : 11011001;
    48B1 : 11011001;
    48B2 : 11011001;
    48B3 : 11011001;
    48B4 : 11011001;
    48B5 : 11011001;
    48B6 : 11011001;
    48B7 : 11011001;
    48B8 : 11011001;
    48B9 : 11011001;
    48BA : 11011001;
    48BB : 11011001;
    48BC : 11011001;
    48BD : 11011001;
    48BE : 11011001;
    48BF : 11011001;
    48C0 : 11011001;
    48C1 : 11011001;
    48C2 : 11011001;
    48C3 : 11011001;
    48C4 : 11011001;
    48C5 : 11011001;
    48C6 : 11011001;
    48C7 : 11011001;
    48C8 : 11011001;
    48C9 : 11011001;
    48CA : 11011001;
    48CB : 11011001;
    48CC : 11011001;
    48CD : 11011001;
    48CE : 11011001;
    48CF : 11011001;
    48D0 : 11011001;
    48D1 : 11011001;
    48D2 : 11011001;
    48D3 : 11011001;
    48D4 : 11011001;
    48D5 : 11011001;
    48D6 : 11011001;
    48D7 : 11011001;
    48D8 : 11011001;
    48D9 : 11011001;
    48DA : 11011001;
    48DB : 11011001;
    48DC : 11011001;
    48DD : 11011001;
    48DE : 11011001;
    48DF : 11011001;
    48E0 : 11011001;
    48E1 : 11011001;
    48E2 : 11011001;
    48E3 : 11011001;
    48E4 : 11011001;
    48E5 : 11011001;
    48E6 : 11011001;
    48E7 : 11011001;
    48E8 : 11011001;
    48E9 : 11011001;
    48EA : 11011001;
    48EB : 11011001;
    48EC : 11011001;
    48ED : 11011001;
    48EE : 11011001;
    48EF : 11011001;
    48F0 : 11011001;
    48F1 : 11011001;
    48F2 : 11011001;
    48F3 : 11011001;
    48F4 : 11011001;
    48F5 : 11011001;
    48F6 : 11011001;
    48F7 : 11011001;
    48F8 : 11011001;
    48F9 : 11011001;
    48FA : 11011001;
    48FB : 11011001;
    48FC : 11011001;
    48FD : 11011001;
    48FE : 11011001;
    48FF : 11011001;
    4900 : 11011001;
    4901 : 11011001;
    4902 : 11011001;
    4903 : 11011001;
    4904 : 11011001;
    4905 : 11011001;
    4906 : 11011001;
    4907 : 11011001;
    4908 : 11011001;
    4909 : 11011001;
    490A : 11011001;
    490B : 11011001;
    490C : 11011001;
    490D : 11011001;
    490E : 11011001;
    490F : 11011001;
    4910 : 11011001;
    4911 : 11011001;
    4912 : 11011001;
    4913 : 11011001;
    4914 : 11011001;
    4915 : 11011001;
    4916 : 11011001;
    4917 : 11011001;
    4918 : 11011001;
    4919 : 11011001;
    491A : 11011001;
    491B : 11011001;
    491C : 11011001;
    491D : 11011001;
    491E : 11011001;
    491F : 11011001;
    4920 : 11011001;
    4921 : 11011001;
    4922 : 11011001;
    4923 : 11011001;
    4924 : 11011001;
    4925 : 11011001;
    4926 : 11011001;
    4927 : 11011001;
    4928 : 11011001;
    4929 : 11011001;
    492A : 11011001;
    492B : 11011001;
    492C : 11011001;
    492D : 11011001;
    492E : 11011001;
    492F : 11011001;
    4930 : 11011001;
    4931 : 11011001;
    4932 : 11011001;
    4933 : 11011001;
    4934 : 11011001;
    4935 : 11011001;
    4936 : 11011001;
    4937 : 11011001;
    4938 : 11011001;
    4939 : 11011001;
    493A : 11011001;
    493B : 11011001;
    493C : 11011001;
    493D : 11011001;
    493E : 11011001;
    493F : 11011001;
    4940 : 11011001;
    4941 : 11011001;
    4942 : 11011001;
    4943 : 11011001;
    4944 : 11011001;
    4945 : 11011001;
    4946 : 11011001;
    4947 : 11011001;
    4948 : 11011001;
    4949 : 11011001;
    494A : 11011001;
    494B : 11011001;
    494C : 11011001;
    494D : 11011001;
    494E : 11011001;
    494F : 11011001;
    4950 : 11011001;
    4951 : 11011001;
    4952 : 11011001;
    4953 : 11011001;
    4954 : 11011001;
    4955 : 11011001;
    4956 : 11011001;
    4957 : 11011001;
    4958 : 11011001;
    4959 : 11011001;
    495A : 11011001;
    495B : 11011001;
    495C : 11011001;
    495D : 11011001;
    495E : 11011001;
    495F : 11011001;
    4960 : 11011001;
    4961 : 11011001;
    4962 : 11011001;
    4963 : 11011001;
    4964 : 11011001;
    4965 : 11011001;
    4966 : 11011001;
    4967 : 11011001;
    4968 : 11011001;
    4969 : 11011001;
    496A : 11011001;
    496B : 11011001;
    496C : 11011001;
    496D : 11011001;
    496E : 11011001;
    496F : 11011001;
    4970 : 11011001;
    4971 : 11011001;
    4972 : 11011001;
    4973 : 11011001;
    4974 : 11011001;
    4975 : 11011001;
    4976 : 11011001;
    4977 : 11011001;
    4978 : 11011001;
    4979 : 11011001;
    497A : 11011001;
    497B : 11011001;
    497C : 11011001;
    497D : 11011001;
    497E : 11011001;
    497F : 11011001;
    4980 : 11011001;
    4981 : 11011001;
    4982 : 11011001;
    4983 : 11011001;
    4984 : 11011001;
    4985 : 11011001;
    4986 : 11011001;
    4987 : 11011001;
    4988 : 11011001;
    4989 : 11011001;
    498A : 11011001;
    498B : 11011001;
    498C : 11011001;
    498D : 11011001;
    498E : 11011001;
    498F : 11011001;
    4990 : 11011001;
    4991 : 11011001;
    4992 : 11011001;
    4993 : 11011001;
    4994 : 11011001;
    4995 : 11011001;
    4996 : 11011001;
    4997 : 11011001;
    4998 : 11011001;
    4999 : 11011001;
    499A : 11011001;
    499B : 11011001;
    499C : 11011001;
    499D : 11011001;
    499E : 11011001;
    499F : 11011001;
    49A0 : 11011001;
    49A1 : 11011001;
    49A2 : 11011001;
    49A3 : 11011001;
    49A4 : 11011001;
    49A5 : 11011001;
    49A6 : 11011001;
    49A7 : 11011001;
    49A8 : 11011001;
    49A9 : 11011001;
    49AA : 11011001;
    49AB : 11011001;
    49AC : 11011001;
    49AD : 11011001;
    49AE : 11011001;
    49AF : 11011001;
    49B0 : 11011001;
    49B1 : 11011001;
    49B2 : 11011001;
    49B3 : 11011001;
    49B4 : 11011001;
    49B5 : 11011001;
    49B6 : 11011001;
    49B7 : 11011001;
    49B8 : 11011001;
    49B9 : 11011001;
    49BA : 11011001;
    49BB : 11011001;
    49BC : 11011001;
    49BD : 11011001;
    49BE : 11011001;
    49BF : 11011001;
    49C0 : 11011001;
    49C1 : 11011001;
    49C2 : 11011001;
    49C3 : 11011001;
    49C4 : 11011001;
    49C5 : 11011001;
    49C6 : 11011001;
    49C7 : 11011001;
    49C8 : 11011001;
    49C9 : 11011001;
    49CA : 11011001;
    49CB : 11011001;
    49CC : 11011001;
    49CD : 11011001;
    49CE : 11011001;
    49CF : 11011001;
    49D0 : 11011001;
    49D1 : 11011001;
    49D2 : 11011001;
    49D3 : 11011001;
    49D4 : 11011001;
    49D5 : 11011001;
    49D6 : 11011001;
    49D7 : 11011001;
    49D8 : 11011001;
    49D9 : 11011001;
    49DA : 11011001;
    49DB : 11011001;
    49DC : 11011001;
    49DD : 11011001;
    49DE : 11011001;
    49DF : 11011001;
    49E0 : 11011001;
    49E1 : 11011001;
    49E2 : 11011001;
    49E3 : 11011001;
    49E4 : 11011001;
    49E5 : 11011001;
    49E6 : 11011001;
    49E7 : 11011001;
    49E8 : 11011001;
    49E9 : 11011001;
    49EA : 11011001;
    49EB : 11011001;
    49EC : 11011001;
    49ED : 11011001;
    49EE : 11011001;
    49EF : 11011001;
    49F0 : 11011001;
    49F1 : 11011001;
    49F2 : 11011001;
    49F3 : 11011001;
    49F4 : 11011001;
    49F5 : 11011001;
    49F6 : 11011001;
    49F7 : 11011001;
    49F8 : 11011001;
    49F9 : 11011001;
    49FA : 11011001;
    49FB : 11011001;
    49FC : 11011001;
    49FD : 11011001;
    49FE : 11011001;
    49FF : 11011001;
    4A00 : 11011001;
    4A01 : 11011001;
    4A02 : 11011001;
    4A03 : 11011001;
    4A04 : 11011001;
    4A05 : 11011001;
    4A06 : 11011001;
    4A07 : 11011001;
    4A08 : 11011001;
    4A09 : 11011001;
    4A0A : 11011001;
    4A0B : 11011001;
    4A0C : 11011001;
    4A0D : 11011001;
    4A0E : 11011001;
    4A0F : 11011001;
    4A10 : 11011001;
    4A11 : 11011001;
    4A12 : 11011001;
    4A13 : 11011001;
    4A14 : 11011001;
    4A15 : 11011001;
    4A16 : 11011001;
    4A17 : 11011001;
    4A18 : 11011001;
    4A19 : 11011001;
    4A1A : 11011001;
    4A1B : 11011001;
    4A1C : 11011001;
    4A1D : 11011001;
    4A1E : 11011001;
    4A1F : 11011001;
    4A20 : 11011001;
    4A21 : 11011001;
    4A22 : 11011001;
    4A23 : 11011001;
    4A24 : 11011001;
    4A25 : 11011001;
    4A26 : 11011001;
    4A27 : 11011001;
    4A28 : 11011001;
    4A29 : 11011001;
    4A2A : 11011001;
    4A2B : 11011001;
    4A2C : 11011001;
    4A2D : 11011001;
    4A2E : 11011001;
    4A2F : 11011001;
    4A30 : 11011001;
    4A31 : 11011001;
    4A32 : 11011001;
    4A33 : 11011001;
    4A34 : 11011001;
    4A35 : 11011001;
    4A36 : 11011001;
    4A37 : 11011001;
    4A38 : 11011001;
    4A39 : 11011001;
    4A3A : 11011001;
    4A3B : 11011001;
    4A3C : 11011001;
    4A3D : 11011001;
    4A3E : 11011001;
    4A3F : 11011001;
    4A40 : 11011001;
    4A41 : 11011001;
    4A42 : 11011001;
    4A43 : 11011001;
    4A44 : 11011001;
    4A45 : 11011001;
    4A46 : 11011001;
    4A47 : 11011001;
    4A48 : 11011001;
    4A49 : 11011001;
    4A4A : 11011001;
    4A4B : 11011001;
    4A4C : 11011001;
    4A4D : 11011001;
    4A4E : 11011001;
    4A4F : 11011001;
    4A50 : 11011001;
    4A51 : 11011001;
    4A52 : 11011001;
    4A53 : 11011001;
    4A54 : 11011001;
    4A55 : 11011001;
    4A56 : 11011001;
    4A57 : 11011001;
    4A58 : 11011001;
    4A59 : 11011001;
    4A5A : 11011001;
    4A5B : 11011001;
    4A5C : 11011001;
    4A5D : 11011001;
    4A5E : 11011001;
    4A5F : 11011001;
    4A60 : 11011001;
    4A61 : 11011001;
    4A62 : 11011001;
    4A63 : 11011001;
    4A64 : 11011001;
    4A65 : 11011001;
    4A66 : 11011001;
    4A67 : 11011001;
    4A68 : 11011001;
    4A69 : 11011001;
    4A6A : 11011001;
    4A6B : 11011001;
    4A6C : 11011001;
    4A6D : 11011001;
    4A6E : 11011001;
    4A6F : 11011001;
    4A70 : 11011001;
    4A71 : 11011001;
    4A72 : 11011001;
    4A73 : 11011001;
    4A74 : 11011001;
    4A75 : 11011001;
    4A76 : 11011001;
    4A77 : 11011001;
    4A78 : 11011001;
    4A79 : 11011001;
    4A7A : 11011001;
    4A7B : 11011001;
    4A7C : 11011001;
    4A7D : 11011001;
    4A7E : 11011001;
    4A7F : 11011001;
    4A80 : 11011001;
    4A81 : 11011001;
    4A82 : 11011001;
    4A83 : 11011001;
    4A84 : 11011001;
    4A85 : 11011001;
    4A86 : 11011001;
    4A87 : 11011001;
    4A88 : 11011001;
    4A89 : 11011001;
    4A8A : 11011001;
    4A8B : 11011001;
    4A8C : 11011001;
    4A8D : 11011001;
    4A8E : 11011001;
    4A8F : 11011001;
    4A90 : 11011001;
    4A91 : 11011001;
    4A92 : 11011001;
    4A93 : 11011001;
    4A94 : 11011001;
    4A95 : 11011001;
    4A96 : 11011001;
    4A97 : 11011001;
    4A98 : 11011001;
    4A99 : 11011001;
    4A9A : 11011001;
    4A9B : 11011001;
    4A9C : 11011001;
    4A9D : 11011001;
    4A9E : 11011001;
    4A9F : 11011001;
    4AA0 : 11011001;
    4AA1 : 11011001;
    4AA2 : 11011001;
    4AA3 : 11011001;
    4AA4 : 11011001;
    4AA5 : 11011001;
    4AA6 : 11011001;
    4AA7 : 11011001;
    4AA8 : 11011001;
    4AA9 : 11011001;
    4AAA : 11011001;
    4AAB : 11011001;
    4AAC : 11011001;
    4AAD : 11011001;
    4AAE : 11011001;
    4AAF : 11011001;
    4AB0 : 11011001;
    4AB1 : 11011001;
    4AB2 : 11011001;
    4AB3 : 11011001;
    4AB4 : 11011001;
    4AB5 : 11011001;
    4AB6 : 11011001;
    4AB7 : 11011001;
    4AB8 : 11011001;
    4AB9 : 11011001;
    4ABA : 11011001;
    4ABB : 11011001;
    4ABC : 11011001;
    4ABD : 11011001;
    4ABE : 11011001;
    4ABF : 11011001;
    4AC0 : 11011001;
    4AC1 : 11011001;
    4AC2 : 11011001;
    4AC3 : 11011001;
    4AC4 : 11011001;
    4AC5 : 11011001;
    4AC6 : 11011001;
    4AC7 : 11011001;
    4AC8 : 11011001;
    4AC9 : 11011001;
    4ACA : 11011001;
    4ACB : 11011001;
    4ACC : 11011001;
    4ACD : 11011001;
    4ACE : 11011001;
    4ACF : 11011001;
    4AD0 : 11011001;
    4AD1 : 11011001;
    4AD2 : 11011001;
    4AD3 : 11011001;
    4AD4 : 11011001;
    4AD5 : 11011001;
    4AD6 : 11011001;
    4AD7 : 11011001;
    4AD8 : 11011001;
    4AD9 : 11011001;
    4ADA : 11011001;
    4ADB : 11011001;
    4ADC : 11011001;
    4ADD : 11011001;
    4ADE : 11011001;
    4ADF : 11011001;
    4AE0 : 11011001;
    4AE1 : 11011001;
    4AE2 : 11011001;
    4AE3 : 11011001;
    4AE4 : 11011001;
    4AE5 : 11011001;
    4AE6 : 11011001;
    4AE7 : 11011001;
    4AE8 : 11011001;
    4AE9 : 11011001;
    4AEA : 11011001;
    4AEB : 11011001;
    4AEC : 11011001;
    4AED : 11011001;
    4AEE : 11011001;
    4AEF : 11011001;
    4AF0 : 11011001;
    4AF1 : 11011001;
    4AF2 : 11011001;
    4AF3 : 11011001;
    4AF4 : 11011001;
    4AF5 : 11011001;
    4AF6 : 11011001;
    4AF7 : 11011001;
    4AF8 : 11011001;
    4AF9 : 11011001;
    4AFA : 11011001;
    4AFB : 11011001;
    4AFC : 11011001;
    4AFD : 11011001;
    4AFE : 11011001;
    4AFF : 11011001;
END;
